3amb_chainA_01
     RDKit          3D

 33 37  0  0  0  0  0  0  0  0999 V2000
  -31.4459  -10.2073   -7.0643 N   0  0  0  0  0  0  0  0  0  0  0  0
  -30.7927   -9.9993   -5.8031 C   0  0  0  0  0  0  0  0  0  0  0  0
  -31.1024  -10.6413   -4.6453 C   0  0  0  0  0  0  0  0  0  0  0  0
  -30.1932  -10.1098   -3.6759 C   0  0  0  0  0  0  0  0  0  0  0  0
  -29.4275   -9.2225   -4.2645 N   0  0  0  0  0  0  0  0  0  0  0  0
  -29.7535   -9.1142   -5.5830 N   0  0  0  0  0  0  0  0  0  0  0  0
  -30.1280  -10.5051   -2.2099 C   0  0  0  0  0  0  0  0  0  0  0  0
  -33.7742   -8.6523  -13.8215 N   0  0  0  0  0  0  0  0  0  0  0  0
  -33.7956   -9.9703  -13.1173 C   0  0  0  0  0  0  0  0  0  0  0  0
  -32.4257  -10.4203  -12.5844 C   0  0  0  0  0  0  0  0  0  0  0  0
  -31.7825   -9.3237  -11.8500 N   0  0  0  0  0  0  0  0  0  0  0  0
  -31.8545   -7.9648  -12.4028 C   0  0  0  0  0  0  0  0  0  0  0  0
  -32.4554   -7.9806  -13.8120 C   0  0  0  0  0  0  0  0  0  0  0  0
  -34.2524   -8.7885  -15.2090 C   0  0  0  0  0  0  0  0  0  0  0  0
  -30.9590   -9.6084  -10.6976 C   0  0  0  0  0  0  0  0  0  0  0  0
  -31.5722   -9.7690   -9.4587 C   0  0  0  0  0  0  0  0  0  0  0  0
  -30.7943  -10.0433   -8.3379 C   0  0  0  0  0  0  0  0  0  0  0  0
  -29.4623  -10.1445   -8.4996 N   0  0  0  0  0  0  0  0  0  0  0  0
  -28.8542   -9.9922   -9.6894 C   0  0  0  0  0  0  0  0  0  0  0  0
  -29.6203   -9.7270  -10.7628 N   0  0  0  0  0  0  0  0  0  0  0  0
  -27.0882  -10.1391   -9.8310 S   0  0  0  0  0  0  0  0  0  0  0  0
  -26.8629  -10.1016   -8.0535 C   0  0  0  0  0  0  0  0  0  0  0  0
  -26.9656  -11.2835   -7.3271 C   0  0  0  0  0  0  0  0  0  0  0  0
  -26.7942  -11.2685   -5.9464 C   0  0  0  0  0  0  0  0  0  0  0  0
  -26.5198  -10.0620   -5.3109 C   0  0  0  0  0  0  0  0  0  0  0  0
  -26.4162   -8.8783   -6.0343 C   0  0  0  0  0  0  0  0  0  0  0  0
  -26.5887   -8.8967   -7.4145 C   0  0  0  0  0  0  0  0  0  0  0  0
  -26.3403  -10.0320   -3.8869 N   0  0  0  0  0  0  0  0  0  0  0  0
  -25.2835   -9.3004   -3.2355 C   0  0  0  0  0  0  0  0  0  0  0  0
  -24.1850   -9.1298   -3.8293 O   0  0  0  0  0  0  0  0  0  0  0  0
  -25.4151   -8.7515   -1.8343 C   0  0  0  0  0  0  0  0  0  0  0  0
  -26.0129   -7.3908   -1.6283 C   0  0  0  0  0  0  0  0  0  0  0  0
  -26.7931   -8.6162   -1.2526 C   0  0  0  0  0  0  0  0  0  0  0  0
  1  2  1  0
  2  3  2  0
  2  6  1  0
  3  4  1  0
  4  5  2  0
  4  7  1  0
  5  6  1  0
  8  9  1  0
  8 13  1  0
  8 14  1  0
  9 10  1  0
 10 11  1  0
 11 12  1  0
 11 15  1  0
 12 13  1  0
 15 16  2  0
 15 20  1  0
 16 17  1  0
 17 18  2  0
 18 19  1  0
 19 20  2  0
 19 21  1  0
 22 23  2  0
 22 27  1  0
 23 24  1  0
 24 25  2  0
 25 26  1  0
 25 28  1  0
 26 27  2  0
 28 29  1  0
 29 30  2  0
 31 32  1  0
 31 33  1  0
 32 33  1  0
 17  1  1  0
 22 21  1  0
 31 29  1  0
M  CHG  1   8   1
M  END
>  <BIOSOLVEIT.HYDE_ESTIMATED_AFFINITY_LOWER_BOUNDARY [nM]>  (1) 
5484.120717

>  <BIOSOLVEIT.HYDE_ESTIMATED_AFFINITY_UPPER_BOUNDARY [nM]>  (1) 
544879.817905

>  <BIOSOLVEIT.LOGP>  (1) 
2.08612

>  <BIOSOLVEIT.MOLECULAR_WEIGHT>  (1) 
465.602

>  <BIOSOLVEIT.TPSA>  (1) 
103.27

>  <fragment_ids>  (1) 
{'AP': 0, 'SE': 0, 'FP': 0, 'GA': 0}

>  <smiles_ligand>  (1) 
Cc1cc(Nc2cc(N3CC[NH+](C)CC3)nc(Sc3ccc(NC(=O)C4CC4)cc3)n2)[nH]n1

>  <smiles_fragments_dummy>  (1) 
{'AP': 'Cc1cc(N)[nH]n1', 'SE': '[26*]c1cc(N2CC[NH+](C)CC2)nc(S[40*])n1', 'FP': 'O=CNc1ccccc1', 'GA': '[52*]C1CC1'}

>  <smiles_fragments>  (1) 
{'AP': '[22*]Nc1cc(C)n[nH]1', 'SE': 'C[NH+]1CCN(c2ccnc(S)n2)CC1', 'FP': '[39*]c1ccc(NC([54*])=O)cc1', 'GA': 'C1CC1'}

>  <BIOSOLVEIT.DOCKING_SCORE>  (1) 
11794.43

>  <filtered>  (1) 
0

$$$$
3amb_chainA_02
     RDKit          3D

 33 37  0  0  0  0  0  0  0  0999 V2000
  -32.3421   -9.5468   -7.2303 N   0  0  0  0  0  0  0  0  0  0  0  0
  -31.8681   -9.9000   -5.9222 C   0  0  0  0  0  0  0  0  0  0  0  0
  -32.5562   -9.7175   -4.7639 C   0  0  0  0  0  0  0  0  0  0  0  0
  -31.6900  -10.2163   -3.7394 C   0  0  0  0  0  0  0  0  0  0  0  0
  -30.5852  -10.6466   -4.3001 N   0  0  0  0  0  0  0  0  0  0  0  0
  -30.6409  -10.4765   -5.6508 N   0  0  0  0  0  0  0  0  0  0  0  0
  -31.9976  -10.2408   -2.2513 C   0  0  0  0  0  0  0  0  0  0  0  0
  -33.7745  -11.4093  -14.1574 N   0  0  0  0  0  0  0  0  0  0  0  0
  -33.0164  -12.3823  -13.3135 C   0  0  0  0  0  0  0  0  0  0  0  0
  -31.7605  -11.7938  -12.6505 C   0  0  0  0  0  0  0  0  0  0  0  0
  -32.0807  -10.5149  -12.0043 N   0  0  0  0  0  0  0  0  0  0  0  0
  -32.9534   -9.5661  -12.7084 C   0  0  0  0  0  0  0  0  0  0  0  0
  -33.2248  -10.0351  -14.1414 C   0  0  0  0  0  0  0  0  0  0  0  0
  -33.8780  -11.8868  -15.5479 C   0  0  0  0  0  0  0  0  0  0  0  0
  -31.4160  -10.1357  -10.7787 C   0  0  0  0  0  0  0  0  0  0  0  0
  -32.1702  -10.0226   -9.6147 C   0  0  0  0  0  0  0  0  0  0  0  0
  -31.5464   -9.6580   -8.4252 C   0  0  0  0  0  0  0  0  0  0  0  0
  -30.2209   -9.4274   -8.4489 N   0  0  0  0  0  0  0  0  0  0  0  0
  -29.4778   -9.5323   -9.5650 C   0  0  0  0  0  0  0  0  0  0  0  0
  -30.0961   -9.8853  -10.7063 N   0  0  0  0  0  0  0  0  0  0  0  0
  -27.7296   -9.2126   -9.5242 S   0  0  0  0  0  0  0  0  0  0  0  0
  -27.6033   -9.6831   -7.7996 C   0  0  0  0  0  0  0  0  0  0  0  0
  -27.3568  -11.0121   -7.4705 C   0  0  0  0  0  0  0  0  0  0  0  0
  -27.2575  -11.3913   -6.1356 C   0  0  0  0  0  0  0  0  0  0  0  0
  -27.4068  -10.4268   -5.1445 C   0  0  0  0  0  0  0  0  0  0  0  0
  -27.6531   -9.0969   -5.4699 C   0  0  0  0  0  0  0  0  0  0  0  0
  -27.7523   -8.7211   -6.8057 C   0  0  0  0  0  0  0  0  0  0  0  0
  -27.3065  -10.8039   -3.7630 N   0  0  0  0  0  0  0  0  0  0  0  0
  -26.1261  -10.5884   -2.9651 C   0  0  0  0  0  0  0  0  0  0  0  0
  -24.9920  -10.5948   -3.5149 O   0  0  0  0  0  0  0  0  0  0  0  0
  -26.1780  -10.3910   -1.4685 C   0  0  0  0  0  0  0  0  0  0  0  0
  -26.3731   -9.0110   -0.9127 C   0  0  0  0  0  0  0  0  0  0  0  0
  -27.4918  -10.0088   -0.8491 C   0  0  0  0  0  0  0  0  0  0  0  0
  1  2  1  0
  2  3  2  0
  2  6  1  0
  3  4  1  0
  4  5  2  0
  4  7  1  0
  5  6  1  0
  8  9  1  0
  8 13  1  0
  8 14  1  0
  9 10  1  0
 10 11  1  0
 11 12  1  0
 11 15  1  0
 12 13  1  0
 15 16  2  0
 15 20  1  0
 16 17  1  0
 17 18  2  0
 18 19  1  0
 19 20  2  0
 19 21  1  0
 22 23  2  0
 22 27  1  0
 23 24  1  0
 24 25  2  0
 25 26  1  0
 25 28  1  0
 26 27  2  0
 28 29  1  0
 29 30  2  0
 31 32  1  0
 31 33  1  0
 32 33  1  0
 17  1  1  0
 22 21  1  0
 31 29  1  0
M  CHG  1   8   1
M  END
>  <BIOSOLVEIT.HYDE_ESTIMATED_AFFINITY_LOWER_BOUNDARY [nM]>  (2) 
537.386785

>  <BIOSOLVEIT.HYDE_ESTIMATED_AFFINITY_UPPER_BOUNDARY [nM]>  (2) 
53392.554386

>  <BIOSOLVEIT.LOGP>  (2) 
2.08612

>  <BIOSOLVEIT.MOLECULAR_WEIGHT>  (2) 
465.602

>  <BIOSOLVEIT.TPSA>  (2) 
103.27

>  <fragment_ids>  (2) 
{'AP': 0, 'SE': 0, 'FP': 0, 'GA': 0}

>  <smiles_ligand>  (2) 
Cc1cc(Nc2cc(N3CC[NH+](C)CC3)nc(Sc3ccc(NC(=O)C4CC4)cc3)n2)[nH]n1

>  <smiles_fragments_dummy>  (2) 
{'AP': 'Cc1cc(N)[nH]n1', 'SE': '[26*]c1cc(N2CC[NH+](C)CC2)nc(S[40*])n1', 'FP': 'O=CNc1ccccc1', 'GA': '[52*]C1CC1'}

>  <smiles_fragments>  (2) 
{'AP': '[22*]Nc1cc(C)n[nH]1', 'SE': 'C[NH+]1CCN(c2ccnc(S)n2)CC1', 'FP': '[39*]c1ccc(NC([54*])=O)cc1', 'GA': 'C1CC1'}

>  <BIOSOLVEIT.DOCKING_SCORE>  (2) 
12288.13

>  <filtered>  (2) 
0

$$$$
3amb_chainA_03
     RDKit          3D

 33 37  0  0  0  0  0  0  0  0999 V2000
  -30.7759  -10.4135   -6.7497 N   0  0  0  0  0  0  0  0  0  0  0  0
  -30.3141   -9.9964   -5.4561 C   0  0  0  0  0  0  0  0  0  0  0  0
  -30.8809  -10.3474   -4.2712 C   0  0  0  0  0  0  0  0  0  0  0  0
  -30.0825   -9.6994   -3.2757 C   0  0  0  0  0  0  0  0  0  0  0  0
  -29.1310   -9.0261   -3.8770 N   0  0  0  0  0  0  0  0  0  0  0  0
  -29.2252   -9.1753   -5.2281 N   0  0  0  0  0  0  0  0  0  0  0  0
  -30.3020   -9.7760   -1.7738 C   0  0  0  0  0  0  0  0  0  0  0  0
  -32.5358   -8.9637  -13.8243 N   0  0  0  0  0  0  0  0  0  0  0  0
  -33.0399   -9.8303  -12.7459 C   0  0  0  0  0  0  0  0  0  0  0  0
  -32.4802   -9.4350  -11.3875 C   0  0  0  0  0  0  0  0  0  0  0  0
  -31.0332   -9.1754  -11.4514 N   0  0  0  0  0  0  0  0  0  0  0  0
  -30.3750   -8.6274  -12.6483 C   0  0  0  0  0  0  0  0  0  0  0  0
  -31.0707   -9.0724  -13.9265 C   0  0  0  0  0  0  0  0  0  0  0  0
  -33.0899   -9.4837  -15.0826 C   0  0  0  0  0  0  0  0  0  0  0  0
  -30.2303   -9.4803  -10.3033 C   0  0  0  0  0  0  0  0  0  0  0  0
  -30.8655   -9.7931   -9.1052 C   0  0  0  0  0  0  0  0  0  0  0  0
  -30.1018  -10.0912   -7.9806 C   0  0  0  0  0  0  0  0  0  0  0  0
  -28.7617  -10.0656   -8.0990 N   0  0  0  0  0  0  0  0  0  0  0  0
  -28.1324   -9.7654   -9.2491 C   0  0  0  0  0  0  0  0  0  0  0  0
  -28.8851   -9.4793  -10.3266 N   0  0  0  0  0  0  0  0  0  0  0  0
  -26.3568   -9.7501   -9.3343 S   0  0  0  0  0  0  0  0  0  0  0  0
  -26.1905  -10.0358   -7.5730 C   0  0  0  0  0  0  0  0  0  0  0  0
  -26.4303  -11.3073   -7.0619 C   0  0  0  0  0  0  0  0  0  0  0  0
  -26.3058  -11.5428   -5.6964 C   0  0  0  0  0  0  0  0  0  0  0  0
  -25.9401  -10.4944   -4.8585 C   0  0  0  0  0  0  0  0  0  0  0  0
  -25.6994   -9.2218   -5.3663 C   0  0  0  0  0  0  0  0  0  0  0  0
  -25.8250   -8.9895   -6.7322 C   0  0  0  0  0  0  0  0  0  0  0  0
  -25.8077  -10.7233   -3.4476 N   0  0  0  0  0  0  0  0  0  0  0  0
  -26.3832   -9.8615   -2.4462 C   0  0  0  0  0  0  0  0  0  0  0  0
  -26.5288   -8.6334   -2.6892 O   0  0  0  0  0  0  0  0  0  0  0  0
  -26.7919  -10.3585   -1.0797 C   0  0  0  0  0  0  0  0  0  0  0  0
  -25.9197  -10.0615    0.1046 C   0  0  0  0  0  0  0  0  0  0  0  0
  -27.2289   -9.3471   -0.0591 C   0  0  0  0  0  0  0  0  0  0  0  0
  1  2  1  0
  2  3  2  0
  2  6  1  0
  3  4  1  0
  4  5  2  0
  4  7  1  0
  5  6  1  0
  8  9  1  0
  8 13  1  0
  8 14  1  0
  9 10  1  0
 10 11  1  0
 11 12  1  0
 11 15  1  0
 12 13  1  0
 15 16  2  0
 15 20  1  0
 16 17  1  0
 17 18  2  0
 18 19  1  0
 19 20  2  0
 19 21  1  0
 22 23  2  0
 22 27  1  0
 23 24  1  0
 24 25  2  0
 25 26  1  0
 25 28  1  0
 26 27  2  0
 28 29  1  0
 29 30  2  0
 31 32  1  0
 31 33  1  0
 32 33  1  0
 17  1  1  0
 22 21  1  0
 31 29  1  0
M  CHG  1   8   1
M  END
>  <BIOSOLVEIT.HYDE_ESTIMATED_AFFINITY_LOWER_BOUNDARY [nM]>  (3) 
12766.354694

>  <BIOSOLVEIT.HYDE_ESTIMATED_AFFINITY_UPPER_BOUNDARY [nM]>  (3) 
1268412.819548

>  <BIOSOLVEIT.LOGP>  (3) 
2.08612

>  <BIOSOLVEIT.MOLECULAR_WEIGHT>  (3) 
465.602

>  <BIOSOLVEIT.TPSA>  (3) 
103.27

>  <fragment_ids>  (3) 
{'AP': 0, 'SE': 0, 'FP': 0, 'GA': 0}

>  <smiles_ligand>  (3) 
Cc1cc(Nc2cc(N3CC[NH+](C)CC3)nc(Sc3ccc(NC(=O)C4CC4)cc3)n2)[nH]n1

>  <smiles_fragments_dummy>  (3) 
{'AP': 'Cc1cc(N)[nH]n1', 'SE': '[26*]c1cc(N2CC[NH+](C)CC2)nc(S[40*])n1', 'FP': 'O=CNc1ccccc1', 'GA': '[52*]C1CC1'}

>  <smiles_fragments>  (3) 
{'AP': '[22*]Nc1cc(C)n[nH]1', 'SE': 'C[NH+]1CCN(c2ccnc(S)n2)CC1', 'FP': '[39*]c1ccc(NC([54*])=O)cc1', 'GA': 'C1CC1'}

>  <BIOSOLVEIT.DOCKING_SCORE>  (3) 
12527.13

>  <filtered>  (3) 
0

$$$$
3amb_chainA_04
     RDKit          3D

 33 37  0  0  0  0  0  0  0  0999 V2000
  -31.4327  -10.5181   -7.2813 N   0  0  0  0  0  0  0  0  0  0  0  0
  -30.9825  -10.1328   -5.9739 C   0  0  0  0  0  0  0  0  0  0  0  0
  -31.5074  -10.5788   -4.8016 C   0  0  0  0  0  0  0  0  0  0  0  0
  -30.7415   -9.9257   -3.7840 C   0  0  0  0  0  0  0  0  0  0  0  0
  -29.8469   -9.1601   -4.3618 N   0  0  0  0  0  0  0  0  0  0  0  0
  -29.9495   -9.2503   -5.7174 N   0  0  0  0  0  0  0  0  0  0  0  0
  -30.9344  -10.0896   -2.2855 C   0  0  0  0  0  0  0  0  0  0  0  0
  -33.8731   -8.5743  -13.9126 N   0  0  0  0  0  0  0  0  0  0  0  0
  -33.8686   -9.8767  -13.1795 C   0  0  0  0  0  0  0  0  0  0  0  0
  -32.4863  -10.2979  -12.6551 C   0  0  0  0  0  0  0  0  0  0  0  0
  -31.8477   -9.1774  -11.9533 N   0  0  0  0  0  0  0  0  0  0  0  0
  -31.9440   -7.8320  -12.5346 C   0  0  0  0  0  0  0  0  0  0  0  0
  -32.5628   -7.8862  -13.9350 C   0  0  0  0  0  0  0  0  0  0  0  0
  -34.3674   -8.7470  -15.2904 C   0  0  0  0  0  0  0  0  0  0  0  0
  -31.0057   -9.4265  -10.8059 C   0  0  0  0  0  0  0  0  0  0  0  0
  -31.5983   -9.8429   -9.6175 C   0  0  0  0  0  0  0  0  0  0  0  0
  -30.8025  -10.0870   -8.5022 C   0  0  0  0  0  0  0  0  0  0  0  0
  -29.4739   -9.9091   -8.6197 N   0  0  0  0  0  0  0  0  0  0  0  0
  -28.8857   -9.5073   -9.7605 C   0  0  0  0  0  0  0  0  0  0  0  0
  -29.6690   -9.2752  -10.8292 N   0  0  0  0  0  0  0  0  0  0  0  0
  -27.1231   -9.2921   -9.8453 S   0  0  0  0  0  0  0  0  0  0  0  0
  -26.9068   -9.7315   -8.1213 C   0  0  0  0  0  0  0  0  0  0  0  0
  -26.9969  -11.0665   -7.7404 C   0  0  0  0  0  0  0  0  0  0  0  0
  -26.8322  -11.4214   -6.4053 C   0  0  0  0  0  0  0  0  0  0  0  0
  -26.5772  -10.4272   -5.4665 C   0  0  0  0  0  0  0  0  0  0  0  0
  -26.4861   -9.0915   -5.8439 C   0  0  0  0  0  0  0  0  0  0  0  0
  -26.6517   -8.7398   -7.1797 C   0  0  0  0  0  0  0  0  0  0  0  0
  -26.4047  -10.7792   -4.0855 N   0  0  0  0  0  0  0  0  0  0  0  0
  -27.1192  -10.1418   -3.0087 C   0  0  0  0  0  0  0  0  0  0  0  0
  -27.4760   -8.9385   -3.1230 O   0  0  0  0  0  0  0  0  0  0  0  0
  -27.4331  -10.8451   -1.7092 C   0  0  0  0  0  0  0  0  0  0  0  0
  -26.4337  -10.8091   -0.5906 C   0  0  0  0  0  0  0  0  0  0  0  0
  -27.6959  -10.0035   -0.4933 C   0  0  0  0  0  0  0  0  0  0  0  0
  1  2  1  0
  2  3  2  0
  2  6  1  0
  3  4  1  0
  4  5  2  0
  4  7  1  0
  5  6  1  0
  8  9  1  0
  8 13  1  0
  8 14  1  0
  9 10  1  0
 10 11  1  0
 11 12  1  0
 11 15  1  0
 12 13  1  0
 15 16  2  0
 15 20  1  0
 16 17  1  0
 17 18  2  0
 18 19  1  0
 19 20  2  0
 19 21  1  0
 22 23  2  0
 22 27  1  0
 23 24  1  0
 24 25  2  0
 25 26  1  0
 25 28  1  0
 26 27  2  0
 28 29  1  0
 29 30  2  0
 31 32  1  0
 31 33  1  0
 32 33  1  0
 17  1  1  0
 22 21  1  0
 31 29  1  0
M  CHG  1   8   1
M  END
>  <BIOSOLVEIT.HYDE_ESTIMATED_AFFINITY_LOWER_BOUNDARY [nM]>  (4) 
4198.493823

>  <BIOSOLVEIT.HYDE_ESTIMATED_AFFINITY_UPPER_BOUNDARY [nM]>  (4) 
417145.184737

>  <BIOSOLVEIT.LOGP>  (4) 
2.08612

>  <BIOSOLVEIT.MOLECULAR_WEIGHT>  (4) 
465.602

>  <BIOSOLVEIT.TPSA>  (4) 
103.27

>  <fragment_ids>  (4) 
{'AP': 0, 'SE': 0, 'FP': 0, 'GA': 0}

>  <smiles_ligand>  (4) 
Cc1cc(Nc2cc(N3CC[NH+](C)CC3)nc(Sc3ccc(NC(=O)C4CC4)cc3)n2)[nH]n1

>  <smiles_fragments_dummy>  (4) 
{'AP': 'Cc1cc(N)[nH]n1', 'SE': '[26*]c1cc(N2CC[NH+](C)CC2)nc(S[40*])n1', 'FP': 'O=CNc1ccccc1', 'GA': '[52*]C1CC1'}

>  <smiles_fragments>  (4) 
{'AP': '[22*]Nc1cc(C)n[nH]1', 'SE': 'C[NH+]1CCN(c2ccnc(S)n2)CC1', 'FP': '[39*]c1ccc(NC([54*])=O)cc1', 'GA': 'C1CC1'}

>  <BIOSOLVEIT.DOCKING_SCORE>  (4) 
12712.94

>  <filtered>  (4) 
0

$$$$
3amb_chainA_05
     RDKit          3D

 33 37  0  0  0  0  0  0  0  0999 V2000
  -32.4256   -9.5297   -7.4917 N   0  0  0  0  0  0  0  0  0  0  0  0
  -31.8720   -9.9301   -6.2292 C   0  0  0  0  0  0  0  0  0  0  0  0
  -32.4240   -9.6706   -5.0142 C   0  0  0  0  0  0  0  0  0  0  0  0
  -31.5249  -10.2594   -4.0688 C   0  0  0  0  0  0  0  0  0  0  0  0
  -30.5314  -10.8097   -4.7247 N   0  0  0  0  0  0  0  0  0  0  0  0
  -30.6951  -10.6375   -6.0664 N   0  0  0  0  0  0  0  0  0  0  0  0
  -31.6919  -10.2466   -2.5583 C   0  0  0  0  0  0  0  0  0  0  0  0
  -34.1547  -11.4922  -14.3206 N   0  0  0  0  0  0  0  0  0  0  0  0
  -33.3245  -12.4176  -13.4911 C   0  0  0  0  0  0  0  0  0  0  0  0
  -32.0590  -11.7712  -12.9045 C   0  0  0  0  0  0  0  0  0  0  0  0
  -32.3913  -10.4871  -12.2749 N   0  0  0  0  0  0  0  0  0  0  0  0
  -33.3284   -9.5861  -12.9586 C   0  0  0  0  0  0  0  0  0  0  0  0
  -33.6519  -10.1008  -14.3648 C   0  0  0  0  0  0  0  0  0  0  0  0
  -34.3083  -12.0088  -15.6923 C   0  0  0  0  0  0  0  0  0  0  0  0
  -31.6820  -10.0547  -11.0927 C   0  0  0  0  0  0  0  0  0  0  0  0
  -32.3679   -9.9970   -9.8832 C   0  0  0  0  0  0  0  0  0  0  0  0
  -31.7004   -9.5824   -8.7346 C   0  0  0  0  0  0  0  0  0  0  0  0
  -30.4009   -9.2503   -8.8411 N   0  0  0  0  0  0  0  0  0  0  0  0
  -29.7236   -9.3005  -10.0020 C   0  0  0  0  0  0  0  0  0  0  0  0
  -30.3834   -9.7030  -11.1030 N   0  0  0  0  0  0  0  0  0  0  0  0
  -28.0061   -8.8468  -10.0706 S   0  0  0  0  0  0  0  0  0  0  0  0
  -27.6853   -9.5035   -8.4343 C   0  0  0  0  0  0  0  0  0  0  0  0
  -27.2534  -10.8190   -8.2990 C   0  0  0  0  0  0  0  0  0  0  0  0
  -27.0017  -11.3419   -7.0346 C   0  0  0  0  0  0  0  0  0  0  0  0
  -27.1871  -10.5335   -5.9180 C   0  0  0  0  0  0  0  0  0  0  0  0
  -27.6187   -9.2176   -6.0496 C   0  0  0  0  0  0  0  0  0  0  0  0
  -27.8699   -8.6978   -7.3153 C   0  0  0  0  0  0  0  0  0  0  0  0
  -26.9309  -11.0599   -4.6072 N   0  0  0  0  0  0  0  0  0  0  0  0
  -27.0934  -10.2931   -3.3982 C   0  0  0  0  0  0  0  0  0  0  0  0
  -26.9166   -9.0455   -3.4222 O   0  0  0  0  0  0  0  0  0  0  0  0
  -27.4328  -10.9269   -2.0697 C   0  0  0  0  0  0  0  0  0  0  0  0
  -26.7884  -10.4072   -0.8183 C   0  0  0  0  0  0  0  0  0  0  0  0
  -28.2375  -10.1255   -1.0870 C   0  0  0  0  0  0  0  0  0  0  0  0
  1  2  1  0
  2  3  1  0
  2  6  2  0
  3  4  2  0
  4  5  1  0
  4  7  1  0
  5  6  1  0
  8  9  1  0
  8 13  1  0
  8 14  1  0
  9 10  1  0
 10 11  1  0
 11 12  1  0
 11 15  1  0
 12 13  1  0
 15 16  2  0
 15 20  1  0
 16 17  1  0
 17 18  2  0
 18 19  1  0
 19 20  2  0
 19 21  1  0
 22 23  2  0
 22 27  1  0
 23 24  1  0
 24 25  2  0
 25 26  1  0
 25 28  1  0
 26 27  2  0
 28 29  1  0
 29 30  2  0
 31 32  1  0
 31 33  1  0
 32 33  1  0
 17  1  1  0
 22 21  1  0
 31 29  1  0
M  CHG  1   8   1
M  END
>  <BIOSOLVEIT.HYDE_ESTIMATED_AFFINITY_LOWER_BOUNDARY [nM]>  (5) 
4585.426862

>  <BIOSOLVEIT.HYDE_ESTIMATED_AFFINITY_UPPER_BOUNDARY [nM]>  (5) 
455589.269914

>  <BIOSOLVEIT.LOGP>  (5) 
2.08612

>  <BIOSOLVEIT.MOLECULAR_WEIGHT>  (5) 
465.602

>  <BIOSOLVEIT.TPSA>  (5) 
103.27

>  <fragment_ids>  (5) 
{'AP': 0, 'SE': 0, 'FP': 0, 'GA': 0}

>  <smiles_ligand>  (5) 
Cc1cc(Nc2cc(N3CC[NH+](C)CC3)nc(Sc3ccc(NC(=O)C4CC4)cc3)n2)n[nH]1

>  <smiles_fragments_dummy>  (5) 
{'AP': 'Cc1cc(N)[nH]n1', 'SE': '[26*]c1cc(N2CC[NH+](C)CC2)nc(S[40*])n1', 'FP': 'O=CNc1ccccc1', 'GA': '[52*]C1CC1'}

>  <smiles_fragments>  (5) 
{'AP': '[22*]Nc1cc(C)n[nH]1', 'SE': 'C[NH+]1CCN(c2ccnc(S)n2)CC1', 'FP': '[39*]c1ccc(NC([54*])=O)cc1', 'GA': 'C1CC1'}

>  <BIOSOLVEIT.DOCKING_SCORE>  (5) 
13147.87

>  <filtered>  (5) 
0

$$$$
3amb_chainA_06
     RDKit          3D

 33 37  0  0  0  0  0  0  0  0999 V2000
  -32.3556   -9.5354   -7.1998 N   0  0  0  0  0  0  0  0  0  0  0  0
  -31.9167   -9.9592   -5.9004 C   0  0  0  0  0  0  0  0  0  0  0  0
  -32.5324   -9.6536   -4.7273 C   0  0  0  0  0  0  0  0  0  0  0  0
  -31.7400  -10.2906   -3.7197 C   0  0  0  0  0  0  0  0  0  0  0  0
  -30.7418  -10.9096   -4.3032 N   0  0  0  0  0  0  0  0  0  0  0  0
  -30.8021  -10.7393   -5.6537 N   0  0  0  0  0  0  0  0  0  0  0  0
  -32.0086  -10.2533   -2.2244 C   0  0  0  0  0  0  0  0  0  0  0  0
  -33.6852  -11.2714  -14.1796 N   0  0  0  0  0  0  0  0  0  0  0  0
  -32.9441  -12.2593  -13.3382 C   0  0  0  0  0  0  0  0  0  0  0  0
  -31.6971  -11.6853  -12.6464 C   0  0  0  0  0  0  0  0  0  0  0  0
  -32.0235  -10.4149  -11.9866 N   0  0  0  0  0  0  0  0  0  0  0  0
  -32.8815   -9.4527  -12.6903 C   0  0  0  0  0  0  0  0  0  0  0  0
  -33.1314   -9.8994  -14.1343 C   0  0  0  0  0  0  0  0  0  0  0  0
  -33.7679  -11.7278  -15.5786 C   0  0  0  0  0  0  0  0  0  0  0  0
  -31.3774  -10.0563  -10.7450 C   0  0  0  0  0  0  0  0  0  0  0  0
  -32.1483   -9.9668   -9.5897 C   0  0  0  0  0  0  0  0  0  0  0  0
  -31.5427   -9.6223   -8.3851 C   0  0  0  0  0  0  0  0  0  0  0  0
  -30.2178   -9.3872   -8.3857 N   0  0  0  0  0  0  0  0  0  0  0  0
  -29.4586   -9.4694   -9.4929 C   0  0  0  0  0  0  0  0  0  0  0  0
  -30.0595   -9.8031  -10.6492 N   0  0  0  0  0  0  0  0  0  0  0  0
  -27.7123   -9.1452   -9.4215 S   0  0  0  0  0  0  0  0  0  0  0  0
  -27.6123   -9.6287   -7.6987 C   0  0  0  0  0  0  0  0  0  0  0  0
  -27.6054  -10.9800   -7.3681 C   0  0  0  0  0  0  0  0  0  0  0  0
  -27.5293  -11.3694   -6.0346 C   0  0  0  0  0  0  0  0  0  0  0  0
  -27.4603  -10.3928   -5.0465 C   0  0  0  0  0  0  0  0  0  0  0  0
  -27.4668   -9.0407   -5.3735 C   0  0  0  0  0  0  0  0  0  0  0  0
  -27.5434   -8.6547   -6.7078 C   0  0  0  0  0  0  0  0  0  0  0  0
  -27.3811  -10.7804   -3.6665 N   0  0  0  0  0  0  0  0  0  0  0  0
  -27.9089   -9.9850   -2.5871 C   0  0  0  0  0  0  0  0  0  0  0  0
  -27.9486   -8.7301   -2.6986 O   0  0  0  0  0  0  0  0  0  0  0  0
  -28.3896  -10.5884   -1.2886 C   0  0  0  0  0  0  0  0  0  0  0  0
  -28.4810  -12.0804   -1.1576 C   0  0  0  0  0  0  0  0  0  0  0  0
  -27.3961  -11.3308   -0.4414 C   0  0  0  0  0  0  0  0  0  0  0  0
  1  2  1  0
  2  3  1  0
  2  6  2  0
  3  4  2  0
  4  5  1  0
  4  7  1  0
  5  6  1  0
  8  9  1  0
  8 13  1  0
  8 14  1  0
  9 10  1  0
 10 11  1  0
 11 12  1  0
 11 15  1  0
 12 13  1  0
 15 16  2  0
 15 20  1  0
 16 17  1  0
 17 18  2  0
 18 19  1  0
 19 20  2  0
 19 21  1  0
 22 23  2  0
 22 27  1  0
 23 24  1  0
 24 25  2  0
 25 26  1  0
 25 28  1  0
 26 27  2  0
 28 29  1  0
 29 30  2  0
 31 32  1  0
 31 33  1  0
 32 33  1  0
 17  1  1  0
 22 21  1  0
 31 29  1  0
M  CHG  1   8   1
M  END
>  <BIOSOLVEIT.HYDE_ESTIMATED_AFFINITY_LOWER_BOUNDARY [nM]>  (6) 
17365.296040

>  <BIOSOLVEIT.HYDE_ESTIMATED_AFFINITY_UPPER_BOUNDARY [nM]>  (6) 
1725344.833335

>  <BIOSOLVEIT.LOGP>  (6) 
2.08612

>  <BIOSOLVEIT.MOLECULAR_WEIGHT>  (6) 
465.602

>  <BIOSOLVEIT.TPSA>  (6) 
103.27

>  <fragment_ids>  (6) 
{'AP': 0, 'SE': 0, 'FP': 0, 'GA': 0}

>  <smiles_ligand>  (6) 
Cc1cc(Nc2cc(N3CC[NH+](C)CC3)nc(Sc3ccc(NC(=O)C4CC4)cc3)n2)n[nH]1

>  <smiles_fragments_dummy>  (6) 
{'AP': 'Cc1cc(N)[nH]n1', 'SE': '[26*]c1cc(N2CC[NH+](C)CC2)nc(S[40*])n1', 'FP': 'O=CNc1ccccc1', 'GA': '[52*]C1CC1'}

>  <smiles_fragments>  (6) 
{'AP': '[22*]Nc1cc(C)n[nH]1', 'SE': 'C[NH+]1CCN(c2ccnc(S)n2)CC1', 'FP': '[39*]c1ccc(NC([54*])=O)cc1', 'GA': 'C1CC1'}

>  <BIOSOLVEIT.DOCKING_SCORE>  (6) 
13442.82

>  <filtered>  (6) 
0

$$$$
3amb_chainA_07
     RDKit          3D

 33 37  0  0  0  0  0  0  0  0999 V2000
  -32.2647   -9.4282   -7.4298 N   0  0  0  0  0  0  0  0  0  0  0  0
  -31.8203   -9.8685   -6.1379 C   0  0  0  0  0  0  0  0  0  0  0  0
  -32.4652   -9.6310   -4.9647 C   0  0  0  0  0  0  0  0  0  0  0  0
  -31.6533  -10.2569   -3.9658 C   0  0  0  0  0  0  0  0  0  0  0  0
  -30.6174  -10.8058   -4.5538 N   0  0  0  0  0  0  0  0  0  0  0  0
  -30.6699  -10.5976   -5.8993 N   0  0  0  0  0  0  0  0  0  0  0  0
  -31.9417  -10.2794   -2.4738 C   0  0  0  0  0  0  0  0  0  0  0  0
  -34.0803  -11.5768  -14.1880 N   0  0  0  0  0  0  0  0  0  0  0  0
  -33.2461  -12.5331  -13.3987 C   0  0  0  0  0  0  0  0  0  0  0  0
  -31.9610  -11.9177  -12.8215 C   0  0  0  0  0  0  0  0  0  0  0  0
  -32.2640  -10.6457  -12.1537 N   0  0  0  0  0  0  0  0  0  0  0  0
  -33.2026   -9.7161  -12.7958 C   0  0  0  0  0  0  0  0  0  0  0  0
  -33.5604  -10.1912  -14.2077 C   0  0  0  0  0  0  0  0  0  0  0  0
  -34.2676  -12.0569  -15.5690 C   0  0  0  0  0  0  0  0  0  0  0  0
  -31.5261  -10.2521  -10.9755 C   0  0  0  0  0  0  0  0  0  0  0  0
  -32.2226  -10.0314   -9.7910 C   0  0  0  0  0  0  0  0  0  0  0  0
  -31.5279   -9.6514   -8.6467 C   0  0  0  0  0  0  0  0  0  0  0  0
  -30.1924   -9.5116   -8.7325 N   0  0  0  0  0  0  0  0  0  0  0  0
  -29.5044   -9.7209   -9.8691 C   0  0  0  0  0  0  0  0  0  0  0  0
  -30.1908  -10.0874  -10.9663 N   0  0  0  0  0  0  0  0  0  0  0  0
  -27.7389   -9.5175   -9.9113 S   0  0  0  0  0  0  0  0  0  0  0  0
  -27.5992   -9.6688   -8.1311 C   0  0  0  0  0  0  0  0  0  0  0  0
  -27.3523  -10.9173   -7.5691 C   0  0  0  0  0  0  0  0  0  0  0  0
  -27.2426  -11.0493   -6.1885 C   0  0  0  0  0  0  0  0  0  0  0  0
  -27.3821   -9.9210   -5.3869 C   0  0  0  0  0  0  0  0  0  0  0  0
  -27.6287   -8.6711   -5.9454 C   0  0  0  0  0  0  0  0  0  0  0  0
  -27.7382   -8.5426   -7.3263 C   0  0  0  0  0  0  0  0  0  0  0  0
  -27.2709  -10.0425   -3.9608 N   0  0  0  0  0  0  0  0  0  0  0  0
  -28.2187   -9.4693   -3.0390 C   0  0  0  0  0  0  0  0  0  0  0  0
  -28.8338   -8.4148   -3.3523 O   0  0  0  0  0  0  0  0  0  0  0  0
  -28.4876  -10.0581   -1.6744 C   0  0  0  0  0  0  0  0  0  0  0  0
  -28.3173  -11.5335   -1.4608 C   0  0  0  0  0  0  0  0  0  0  0  0
  -27.3204  -10.5729   -0.8819 C   0  0  0  0  0  0  0  0  0  0  0  0
  1  2  1  0
  2  3  2  0
  2  6  1  0
  3  4  1  0
  4  5  2  0
  4  7  1  0
  5  6  1  0
  8  9  1  0
  8 13  1  0
  8 14  1  0
  9 10  1  0
 10 11  1  0
 11 12  1  0
 11 15  1  0
 12 13  1  0
 15 16  2  0
 15 20  1  0
 16 17  1  0
 17 18  2  0
 18 19  1  0
 19 20  2  0
 19 21  1  0
 22 23  2  0
 22 27  1  0
 23 24  1  0
 24 25  2  0
 25 26  1  0
 25 28  1  0
 26 27  2  0
 28 29  1  0
 29 30  2  0
 31 32  1  0
 31 33  1  0
 32 33  1  0
 17  1  1  0
 22 21  1  0
 31 29  1  0
M  CHG  1   8   1
M  END
>  <BIOSOLVEIT.HYDE_ESTIMATED_AFFINITY_LOWER_BOUNDARY [nM]>  (7) 
10287.019999

>  <BIOSOLVEIT.HYDE_ESTIMATED_AFFINITY_UPPER_BOUNDARY [nM]>  (7) 
1022076.258581

>  <BIOSOLVEIT.LOGP>  (7) 
2.08612

>  <BIOSOLVEIT.MOLECULAR_WEIGHT>  (7) 
465.602

>  <BIOSOLVEIT.TPSA>  (7) 
103.27

>  <fragment_ids>  (7) 
{'AP': 0, 'SE': 0, 'FP': 0, 'GA': 0}

>  <smiles_ligand>  (7) 
Cc1cc(Nc2cc(N3CC[NH+](C)CC3)nc(Sc3ccc(NC(=O)C4CC4)cc3)n2)[nH]n1

>  <smiles_fragments_dummy>  (7) 
{'AP': 'Cc1cc(N)[nH]n1', 'SE': '[26*]c1cc(N2CC[NH+](C)CC2)nc(S[40*])n1', 'FP': 'O=CNc1ccccc1', 'GA': '[52*]C1CC1'}

>  <smiles_fragments>  (7) 
{'AP': '[22*]Nc1cc(C)n[nH]1', 'SE': 'C[NH+]1CCN(c2ccnc(S)n2)CC1', 'FP': '[39*]c1ccc(NC([54*])=O)cc1', 'GA': 'C1CC1'}

>  <BIOSOLVEIT.DOCKING_SCORE>  (7) 
14644.08

>  <filtered>  (7) 
0

$$$$
3amb_chainA_08
     RDKit          3D

 33 37  0  0  0  0  0  0  0  0999 V2000
  -32.4532   -9.6803   -7.3487 N   0  0  0  0  0  0  0  0  0  0  0  0
  -31.8478   -9.9901   -6.0846 C   0  0  0  0  0  0  0  0  0  0  0  0
  -32.4325   -9.8091   -4.8706 C   0  0  0  0  0  0  0  0  0  0  0  0
  -31.4576  -10.2561   -3.9228 C   0  0  0  0  0  0  0  0  0  0  0  0
  -30.3938  -10.6578   -4.5764 N   0  0  0  0  0  0  0  0  0  0  0  0
  -30.5802  -10.5171   -5.9188 N   0  0  0  0  0  0  0  0  0  0  0  0
  -31.6255  -10.2616   -2.4123 C   0  0  0  0  0  0  0  0  0  0  0  0
  -34.3746   -8.4833  -14.2980 N   0  0  0  0  0  0  0  0  0  0  0  0
  -34.4563   -9.8288  -13.6528 C   0  0  0  0  0  0  0  0  0  0  0  0
  -33.1340  -10.3103  -13.0340 C   0  0  0  0  0  0  0  0  0  0  0  0
  -32.5455   -9.2494  -12.2070 N   0  0  0  0  0  0  0  0  0  0  0  0
  -32.5685   -7.8685  -12.7070 C   0  0  0  0  0  0  0  0  0  0  0  0
  -33.0577   -7.8222  -14.1581 C   0  0  0  0  0  0  0  0  0  0  0  0
  -34.7436   -8.5591  -15.7230 C   0  0  0  0  0  0  0  0  0  0  0  0
  -31.8155   -9.5871  -11.0067 C   0  0  0  0  0  0  0  0  0  0  0  0
  -32.4592   -9.4776   -9.7777 C   0  0  0  0  0  0  0  0  0  0  0  0
  -31.7712   -9.7985   -8.6114 C   0  0  0  0  0  0  0  0  0  0  0  0
  -30.4941  -10.2080   -8.7205 N   0  0  0  0  0  0  0  0  0  0  0  0
  -29.8577  -10.3191   -9.9002 C   0  0  0  0  0  0  0  0  0  0  0  0
  -30.5367  -10.0049  -11.0179 N   0  0  0  0  0  0  0  0  0  0  0  0
  -28.1679  -10.8668   -9.9711 S   0  0  0  0  0  0  0  0  0  0  0  0
  -27.8054  -10.2166   -8.3409 C   0  0  0  0  0  0  0  0  0  0  0  0
  -27.3304  -11.0742   -7.3538 C   0  0  0  0  0  0  0  0  0  0  0  0
  -27.0460  -10.5830   -6.0837 C   0  0  0  0  0  0  0  0  0  0  0  0
  -27.2423   -9.2313   -5.8204 C   0  0  0  0  0  0  0  0  0  0  0  0
  -27.7170   -8.3709   -6.8050 C   0  0  0  0  0  0  0  0  0  0  0  0
  -28.0008   -8.8654   -8.0741 C   0  0  0  0  0  0  0  0  0  0  0  0
  -26.9527   -8.7108   -4.5143 N   0  0  0  0  0  0  0  0  0  0  0  0
  -25.6159   -8.5634   -3.9971 C   0  0  0  0  0  0  0  0  0  0  0  0
  -24.7100   -9.3538   -4.3754 O   0  0  0  0  0  0  0  0  0  0  0  0
  -25.2480   -7.5140   -2.9748 C   0  0  0  0  0  0  0  0  0  0  0  0
  -25.9288   -7.5158   -1.6378 C   0  0  0  0  0  0  0  0  0  0  0  0
  -24.4970   -7.9505   -1.7496 C   0  0  0  0  0  0  0  0  0  0  0  0
  1  2  1  0
  2  3  2  0
  2  6  1  0
  3  4  1  0
  4  5  2  0
  4  7  1  0
  5  6  1  0
  8  9  1  0
  8 13  1  0
  8 14  1  0
  9 10  1  0
 10 11  1  0
 11 12  1  0
 11 15  1  0
 12 13  1  0
 15 16  2  0
 15 20  1  0
 16 17  1  0
 17 18  2  0
 18 19  1  0
 19 20  2  0
 19 21  1  0
 22 23  2  0
 22 27  1  0
 23 24  1  0
 24 25  2  0
 25 26  1  0
 25 28  1  0
 26 27  2  0
 28 29  1  0
 29 30  2  0
 31 32  1  0
 31 33  1  0
 32 33  1  0
 17  1  1  0
 22 21  1  0
 31 29  1  0
M  CHG  1   8   1
M  END
>  <BIOSOLVEIT.HYDE_ESTIMATED_AFFINITY_LOWER_BOUNDARY [nM]>  (8) 
5948.683163

>  <BIOSOLVEIT.HYDE_ESTIMATED_AFFINITY_UPPER_BOUNDARY [nM]>  (8) 
591036.843670

>  <BIOSOLVEIT.LOGP>  (8) 
2.08612

>  <BIOSOLVEIT.MOLECULAR_WEIGHT>  (8) 
465.602

>  <BIOSOLVEIT.TPSA>  (8) 
103.27

>  <fragment_ids>  (8) 
{'AP': 0, 'SE': 0, 'FP': 0, 'GA': 0}

>  <smiles_ligand>  (8) 
Cc1cc(Nc2cc(N3CC[NH+](C)CC3)nc(Sc3ccc(NC(=O)C4CC4)cc3)n2)[nH]n1

>  <smiles_fragments_dummy>  (8) 
{'AP': 'Cc1cc(N)[nH]n1', 'SE': '[26*]c1cc(N2CC[NH+](C)CC2)nc(S[40*])n1', 'FP': 'O=CNc1ccccc1', 'GA': '[52*]C1CC1'}

>  <smiles_fragments>  (8) 
{'AP': '[22*]Nc1cc(C)n[nH]1', 'SE': 'C[NH+]1CCN(c2ccnc(S)n2)CC1', 'FP': '[39*]c1ccc(NC([54*])=O)cc1', 'GA': 'C1CC1'}

>  <BIOSOLVEIT.DOCKING_SCORE>  (8) 
14836.03

>  <filtered>  (8) 
0

$$$$
3amb_chainA_09
     RDKit          3D

 33 37  0  0  0  0  0  0  0  0999 V2000
  -32.4730   -9.6803   -7.2204 N   0  0  0  0  0  0  0  0  0  0  0  0
  -31.8957   -9.9962   -5.9447 C   0  0  0  0  0  0  0  0  0  0  0  0
  -32.5161   -9.8432   -4.7446 C   0  0  0  0  0  0  0  0  0  0  0  0
  -31.5585  -10.2848   -3.7769 C   0  0  0  0  0  0  0  0  0  0  0  0
  -30.4701  -10.6572   -4.4068 N   0  0  0  0  0  0  0  0  0  0  0  0
  -30.6232  -10.5014   -5.7518 N   0  0  0  0  0  0  0  0  0  0  0  0
  -31.7667  -10.3146   -2.2717 C   0  0  0  0  0  0  0  0  0  0  0  0
  -34.2621   -8.5147  -14.2103 N   0  0  0  0  0  0  0  0  0  0  0  0
  -34.3509   -9.8639  -13.5740 C   0  0  0  0  0  0  0  0  0  0  0  0
  -33.0402  -10.3414  -12.9279 C   0  0  0  0  0  0  0  0  0  0  0  0
  -32.4766   -9.2817  -12.0824 N   0  0  0  0  0  0  0  0  0  0  0  0
  -32.4959   -7.8984  -12.5758 C   0  0  0  0  0  0  0  0  0  0  0  0
  -32.9524   -7.8471  -14.0373 C   0  0  0  0  0  0  0  0  0  0  0  0
  -34.5983   -8.5850  -15.6437 C   0  0  0  0  0  0  0  0  0  0  0  0
  -31.7721   -9.6216  -10.8676 C   0  0  0  0  0  0  0  0  0  0  0  0
  -32.4348   -9.4944   -9.6505 C   0  0  0  0  0  0  0  0  0  0  0  0
  -31.7715   -9.8171   -8.4705 C   0  0  0  0  0  0  0  0  0  0  0  0
  -30.4988  -10.2458   -8.5551 N   0  0  0  0  0  0  0  0  0  0  0  0
  -29.8442  -10.3744   -9.7230 C   0  0  0  0  0  0  0  0  0  0  0  0
  -30.4995  -10.0580  -10.8543 N   0  0  0  0  0  0  0  0  0  0  0  0
  -28.1616  -10.9471   -9.7614 S   0  0  0  0  0  0  0  0  0  0  0  0
  -27.7620  -10.1221   -8.2215 C   0  0  0  0  0  0  0  0  0  0  0  0
  -27.1881  -10.8516   -7.1851 C   0  0  0  0  0  0  0  0  0  0  0  0
  -26.8737  -10.2240   -5.9839 C   0  0  0  0  0  0  0  0  0  0  0  0
  -27.1402   -8.8665   -5.8387 C   0  0  0  0  0  0  0  0  0  0  0  0
  -27.7139   -8.1341   -6.8729 C   0  0  0  0  0  0  0  0  0  0  0  0
  -28.0273   -8.7647   -8.0728 C   0  0  0  0  0  0  0  0  0  0  0  0
  -26.8208   -8.2061   -4.6048 N   0  0  0  0  0  0  0  0  0  0  0  0
  -27.6432   -8.2882   -3.4245 C   0  0  0  0  0  0  0  0  0  0  0  0
  -28.8888   -8.4409   -3.5416 O   0  0  0  0  0  0  0  0  0  0  0  0
  -27.0816   -8.1584   -2.0283 C   0  0  0  0  0  0  0  0  0  0  0  0
  -25.5953   -8.1912   -1.8250 C   0  0  0  0  0  0  0  0  0  0  0  0
  -26.3433   -6.8990   -1.6755 C   0  0  0  0  0  0  0  0  0  0  0  0
  1  2  1  0
  2  3  2  0
  2  6  1  0
  3  4  1  0
  4  5  2  0
  4  7  1  0
  5  6  1  0
  8  9  1  0
  8 13  1  0
  8 14  1  0
  9 10  1  0
 10 11  1  0
 11 12  1  0
 11 15  1  0
 12 13  1  0
 15 16  2  0
 15 20  1  0
 16 17  1  0
 17 18  2  0
 18 19  1  0
 19 20  2  0
 19 21  1  0
 22 23  2  0
 22 27  1  0
 23 24  1  0
 24 25  2  0
 25 26  1  0
 25 28  1  0
 26 27  2  0
 28 29  1  0
 29 30  2  0
 31 32  1  0
 31 33  1  0
 32 33  1  0
 17  1  1  0
 22 21  1  0
 31 29  1  0
M  CHG  1   8   1
M  END
>  <BIOSOLVEIT.HYDE_ESTIMATED_AFFINITY_LOWER_BOUNDARY [nM]>  (9) 
2006.543105

>  <BIOSOLVEIT.HYDE_ESTIMATED_AFFINITY_UPPER_BOUNDARY [nM]>  (9) 
199361.921083

>  <BIOSOLVEIT.LOGP>  (9) 
2.08612

>  <BIOSOLVEIT.MOLECULAR_WEIGHT>  (9) 
465.602

>  <BIOSOLVEIT.TPSA>  (9) 
103.27

>  <fragment_ids>  (9) 
{'AP': 0, 'SE': 0, 'FP': 0, 'GA': 0}

>  <smiles_ligand>  (9) 
Cc1cc(Nc2cc(N3CC[NH+](C)CC3)nc(Sc3ccc(NC(=O)C4CC4)cc3)n2)[nH]n1

>  <smiles_fragments_dummy>  (9) 
{'AP': 'Cc1cc(N)[nH]n1', 'SE': '[26*]c1cc(N2CC[NH+](C)CC2)nc(S[40*])n1', 'FP': 'O=CNc1ccccc1', 'GA': '[52*]C1CC1'}

>  <smiles_fragments>  (9) 
{'AP': '[22*]Nc1cc(C)n[nH]1', 'SE': 'C[NH+]1CCN(c2ccnc(S)n2)CC1', 'FP': '[39*]c1ccc(NC([54*])=O)cc1', 'GA': 'C1CC1'}

>  <BIOSOLVEIT.DOCKING_SCORE>  (9) 
14923.22

>  <filtered>  (9) 
0

$$$$
