3amb_chainA_02
     RDKit          3D

 33 37  0  0  0  0  0  0  0  0999 V2000
  -30.2381   -9.4486   -9.1122 N   0  0  0  0  0  0  0  0  0  0  0  0
  -30.5382   -9.5046   -7.7095 C   0  0  0  0  0  0  0  0  0  0  0  0
  -31.6780  -10.0151   -7.1721 C   0  0  0  0  0  0  0  0  0  0  0  0
  -31.5221   -9.8537   -5.7584 C   0  0  0  0  0  0  0  0  0  0  0  0
  -30.3636   -9.2832   -5.5289 N   0  0  0  0  0  0  0  0  0  0  0  0
  -29.7110   -9.0456   -6.7012 N   0  0  0  0  0  0  0  0  0  0  0  0
  -32.5309  -10.2704   -4.7010 C   0  0  0  0  0  0  0  0  0  0  0  0
  -27.1668   -6.5823  -15.1490 N   0  0  0  0  0  0  0  0  0  0  0  0
  -28.4739   -6.6663  -14.4762 C   0  0  0  0  0  0  0  0  0  0  0  0
  -28.3326   -6.7524  -12.9638 C   0  0  0  0  0  0  0  0  0  0  0  0
  -27.2853   -7.7082  -12.5701 N   0  0  0  0  0  0  0  0  0  0  0  0
  -26.0840   -7.9528  -13.3844 C   0  0  0  0  0  0  0  0  0  0  0  0
  -26.3684   -7.7878  -14.8702 C   0  0  0  0  0  0  0  0  0  0  0  0
  -27.4321   -6.5724  -16.5949 C   0  0  0  0  0  0  0  0  0  0  0  0
  -27.4488   -8.4396  -11.3477 C   0  0  0  0  0  0  0  0  0  0  0  0
  -28.7291   -8.5927  -10.8244 C   0  0  0  0  0  0  0  0  0  0  0  0
  -28.9061   -9.2994   -9.6386 C   0  0  0  0  0  0  0  0  0  0  0  0
  -27.8174   -9.8140   -9.0382 N   0  0  0  0  0  0  0  0  0  0  0  0
  -26.5736   -9.6751   -9.5306 C   0  0  0  0  0  0  0  0  0  0  0  0
  -26.4196   -8.9890  -10.6774 N   0  0  0  0  0  0  0  0  0  0  0  0
  -25.1788  -10.3815   -8.6846 S   0  0  0  0  0  0  0  0  0  0  0  0
  -26.0460  -10.4150   -7.1166 C   0  0  0  0  0  0  0  0  0  0  0  0
  -26.8343  -11.5154   -6.7957 C   0  0  0  0  0  0  0  0  0  0  0  0
  -27.5139  -11.5539   -5.5822 C   0  0  0  0  0  0  0  0  0  0  0  0
  -27.3920  -10.4829   -4.7031 C   0  0  0  0  0  0  0  0  0  0  0  0
  -26.6044   -9.3811   -5.0208 C   0  0  0  0  0  0  0  0  0  0  0  0
  -25.9265   -9.3454   -6.2351 C   0  0  0  0  0  0  0  0  0  0  0  0
  -28.0873  -10.5094   -3.4476 N   0  0  0  0  0  0  0  0  0  0  0  0
  -27.4204  -10.4953   -2.1703 C   0  0  0  0  0  0  0  0  0  0  0  0
  -26.2750  -11.0093   -2.0591 O   0  0  0  0  0  0  0  0  0  0  0  0
  -28.0538   -9.9197   -0.9257 C   0  0  0  0  0  0  0  0  0  0  0  0
  -27.5880  -10.3861    0.4222 C   0  0  0  0  0  0  0  0  0  0  0  0
  -27.2238   -9.0134   -0.0623 C   0  0  0  0  0  0  0  0  0  0  0  0
  1  2  1  0
  2  3  2  0
  2  6  1  0
  3  4  1  0
  4  5  2  0
  4  7  1  0
  5  6  1  0
  8  9  1  0
  8 13  1  0
  8 14  1  0
  9 10  1  0
 10 11  1  0
 11 12  1  0
 11 15  1  0
 12 13  1  0
 15 16  2  0
 15 20  1  0
 16 17  1  0
 17 18  2  0
 18 19  1  0
 19 20  2  0
 19 21  1  0
 22 23  2  0
 22 27  1  0
 23 24  1  0
 24 25  2  0
 25 26  1  0
 25 28  1  0
 26 27  2  0
 28 29  1  0
 29 30  2  0
 31 32  1  0
 31 33  1  0
 32 33  1  0
 17  1  1  0
 22 21  1  0
 31 29  1  0
M  CHG  1   8   1
M  END
>  <BIOSOLVEIT.HYDE_ESTIMATED_AFFINITY_LOWER_BOUNDARY [nM]>  (1) 
11049112.757453

>  <BIOSOLVEIT.HYDE_ESTIMATED_AFFINITY_UPPER_BOUNDARY [nM]>  (1) 
1097794679.977720

>  <BIOSOLVEIT.LOGP>  (1) 
2.08612

>  <BIOSOLVEIT.MOLECULAR_WEIGHT>  (1) 
465.602

>  <BIOSOLVEIT.TPSA>  (1) 
103.27

>  <fragment_ids>  (1) 
{'AP': 0, 'SE': 0, 'FP': 0, 'GA': 0}

>  <smiles_ligand>  (1) 
Cc1cc(Nc2cc(N3CC[NH+](C)CC3)nc(Sc3ccc(NC(=O)C4CC4)cc3)n2)[nH]n1

>  <smiles_fragments_dummy>  (1) 
{'AP': 'Cc1cc(N)[nH]n1', 'SE': '[26*]c1cc(N2CC[NH+](C)CC2)nc(S[40*])n1', 'FP': 'O=CNc1ccccc1', 'GA': '[52*]C1CC1'}

>  <smiles_fragments>  (1) 
{'AP': '[22*]Nc1cc(C)n[nH]1', 'SE': 'C[NH+]1CCN(c2ccnc(S)n2)CC1', 'FP': '[39*]c1ccc(NC([54*])=O)cc1', 'GA': 'C1CC1'}

>  <BIOSOLVEIT.DOCKING_SCORE>  (1) 
8390.99

>  <filtered>  (1) 
0

$$$$
3amb_chainA_1
     RDKit          3D

 33 37  0  0  0  0  0  0  0  0999 V2000
  -31.4462  -10.2070   -7.0641 N   0  0  0  0  0  0  0  0  0  0  0  0
  -30.7930   -9.9992   -5.8030 C   0  0  0  0  0  0  0  0  0  0  0  0
  -31.1028  -10.6411   -4.6451 C   0  0  0  0  0  0  0  0  0  0  0  0
  -30.1935  -10.1097   -3.6757 C   0  0  0  0  0  0  0  0  0  0  0  0
  -29.4276   -9.2226   -4.2644 N   0  0  0  0  0  0  0  0  0  0  0  0
  -29.7536   -9.1142   -5.5829 N   0  0  0  0  0  0  0  0  0  0  0  0
  -30.1284  -10.5050   -2.2098 C   0  0  0  0  0  0  0  0  0  0  0  0
  -33.7744   -8.6526  -13.8216 N   0  0  0  0  0  0  0  0  0  0  0  0
  -33.7957   -9.9705  -13.1174 C   0  0  0  0  0  0  0  0  0  0  0  0
  -32.4258  -10.4205  -12.5845 C   0  0  0  0  0  0  0  0  0  0  0  0
  -31.7827   -9.3238  -11.8500 N   0  0  0  0  0  0  0  0  0  0  0  0
  -31.8547   -7.9650  -12.4028 C   0  0  0  0  0  0  0  0  0  0  0  0
  -32.4556   -7.9807  -13.8119 C   0  0  0  0  0  0  0  0  0  0  0  0
  -34.2525   -8.7887  -15.2091 C   0  0  0  0  0  0  0  0  0  0  0  0
  -30.9591   -9.6085  -10.6975 C   0  0  0  0  0  0  0  0  0  0  0  0
  -31.5725   -9.7689   -9.4586 C   0  0  0  0  0  0  0  0  0  0  0  0
  -30.7945  -10.0432   -8.3378 C   0  0  0  0  0  0  0  0  0  0  0  0
  -29.4626  -10.1446   -8.4994 N   0  0  0  0  0  0  0  0  0  0  0  0
  -28.8544   -9.9925   -9.6893 C   0  0  0  0  0  0  0  0  0  0  0  0
  -29.6205   -9.7274  -10.7627 N   0  0  0  0  0  0  0  0  0  0  0  0
  -27.0884  -10.1397   -9.8308 S   0  0  0  0  0  0  0  0  0  0  0  0
  -26.8632  -10.1019   -8.0533 C   0  0  0  0  0  0  0  0  0  0  0  0
  -26.9660  -11.2838   -7.3267 C   0  0  0  0  0  0  0  0  0  0  0  0
  -26.7946  -11.2687   -5.9461 C   0  0  0  0  0  0  0  0  0  0  0  0
  -26.5203  -10.0621   -5.3106 C   0  0  0  0  0  0  0  0  0  0  0  0
  -26.4165   -8.8785   -6.0342 C   0  0  0  0  0  0  0  0  0  0  0  0
  -26.5889   -8.8969   -7.4145 C   0  0  0  0  0  0  0  0  0  0  0  0
  -26.3406  -10.0319   -3.8868 N   0  0  0  0  0  0  0  0  0  0  0  0
  -25.2838   -9.3004   -3.2353 C   0  0  0  0  0  0  0  0  0  0  0  0
  -24.1852   -9.1301   -3.8292 O   0  0  0  0  0  0  0  0  0  0  0  0
  -25.4153   -8.7514   -1.8343 C   0  0  0  0  0  0  0  0  0  0  0  0
  -26.0133   -7.3908   -1.6282 C   0  0  0  0  0  0  0  0  0  0  0  0
  -26.7933   -8.6163   -1.2524 C   0  0  0  0  0  0  0  0  0  0  0  0
  1  2  1  0
  2  3  2  0
  2  6  1  0
  3  4  1  0
  4  5  2  0
  4  7  1  0
  5  6  1  0
  8  9  1  0
  8 13  1  0
  8 14  1  0
  9 10  1  0
 10 11  1  0
 11 12  1  0
 11 15  1  0
 12 13  1  0
 15 16  2  0
 15 20  1  0
 16 17  1  0
 17 18  2  0
 18 19  1  0
 19 20  2  0
 19 21  1  0
 22 23  2  0
 22 27  1  0
 23 24  1  0
 24 25  2  0
 25 26  1  0
 25 28  1  0
 26 27  2  0
 28 29  1  0
 29 30  2  0
 31 32  1  0
 31 33  1  0
 32 33  1  0
 17  1  1  0
 22 21  1  0
 31 29  1  0
M  CHG  1   8   1
M  END
>  <BIOSOLVEIT.HYDE_ESTIMATED_AFFINITY_LOWER_BOUNDARY [nM]>  (2) 
5494.690144

>  <BIOSOLVEIT.HYDE_ESTIMATED_AFFINITY_UPPER_BOUNDARY [nM]>  (2) 
545929.953014

>  <BIOSOLVEIT.LOGP>  (2) 
2.08612

>  <BIOSOLVEIT.MOLECULAR_WEIGHT>  (2) 
465.602

>  <BIOSOLVEIT.TPSA>  (2) 
103.27

>  <fragment_ids>  (2) 
{'AP': 0, 'SE': 0, 'FP': 0, 'GA': 0}

>  <smiles_ligand>  (2) 
Cc1cc(Nc2cc(N3CC[NH+](C)CC3)nc(Sc3ccc(NC(=O)C4CC4)cc3)n2)[nH]n1

>  <smiles_fragments_dummy>  (2) 
{'AP': 'Cc1cc(N)[nH]n1', 'SE': '[26*]c1cc(N2CC[NH+](C)CC2)nc(S[40*])n1', 'FP': 'O=CNc1ccccc1', 'GA': '[52*]C1CC1'}

>  <smiles_fragments>  (2) 
{'AP': '[22*]Nc1cc(C)n[nH]1', 'SE': 'C[NH+]1CCN(c2ccnc(S)n2)CC1', 'FP': '[39*]c1ccc(NC([54*])=O)cc1', 'GA': 'C1CC1'}

>  <BIOSOLVEIT.DOCKING_SCORE>  (2) 
11795.65

>  <filtered>  (2) 
0

$$$$
3amb_chainA_2
     RDKit          3D

 33 37  0  0  0  0  0  0  0  0999 V2000
  -32.3674   -9.6595   -7.3365 N   0  0  0  0  0  0  0  0  0  0  0  0
  -31.8849   -9.9863   -6.0247 C   0  0  0  0  0  0  0  0  0  0  0  0
  -32.5226   -9.6940   -4.8601 C   0  0  0  0  0  0  0  0  0  0  0  0
  -31.6689  -10.2107   -3.8339 C   0  0  0  0  0  0  0  0  0  0  0  0
  -30.6180  -10.7542   -4.3999 N   0  0  0  0  0  0  0  0  0  0  0  0
  -30.6995  -10.6453   -5.7556 N   0  0  0  0  0  0  0  0  0  0  0  0
  -31.9342  -10.1389   -2.3392 C   0  0  0  0  0  0  0  0  0  0  0  0
  -33.7509  -10.6068  -14.4518 N   0  0  0  0  0  0  0  0  0  0  0  0
  -33.2314  -11.7361  -13.6223 C   0  0  0  0  0  0  0  0  0  0  0  0
  -31.9270  -11.4178  -12.8736 C   0  0  0  0  0  0  0  0  0  0  0  0
  -32.0420  -10.1280  -12.1814 N   0  0  0  0  0  0  0  0  0  0  0  0
  -32.6862   -9.0067  -12.8778 C   0  0  0  0  0  0  0  0  0  0  0  0
  -32.9602   -9.3602  -14.3431 C   0  0  0  0  0  0  0  0  0  0  0  0
  -33.8642  -11.0014  -15.8673 C   0  0  0  0  0  0  0  0  0  0  0  0
  -31.3871   -9.9275  -10.9092 C   0  0  0  0  0  0  0  0  0  0  0  0
  -32.1631   -9.8886   -9.7546 C   0  0  0  0  0  0  0  0  0  0  0  0
  -31.5490   -9.6961   -8.5207 C   0  0  0  0  0  0  0  0  0  0  0  0
  -30.2111   -9.5543   -8.4933 N   0  0  0  0  0  0  0  0  0  0  0  0
  -29.4469   -9.5894   -9.5995 C   0  0  0  0  0  0  0  0  0  0  0  0
  -30.0560   -9.7759  -10.7842 N   0  0  0  0  0  0  0  0  0  0  0  0
  -27.6833   -9.3946   -9.4902 S   0  0  0  0  0  0  0  0  0  0  0  0
  -27.6708   -9.7692   -7.7377 C   0  0  0  0  0  0  0  0  0  0  0  0
  -27.4063  -11.0692   -7.3191 C   0  0  0  0  0  0  0  0  0  0  0  0
  -27.3946  -11.3741   -5.9617 C   0  0  0  0  0  0  0  0  0  0  0  0
  -27.6489  -10.3651   -5.0385 C   0  0  0  0  0  0  0  0  0  0  0  0
  -27.9135   -9.0641   -5.4535 C   0  0  0  0  0  0  0  0  0  0  0  0
  -27.9249   -8.7626   -6.8116 C   0  0  0  0  0  0  0  0  0  0  0  0
  -27.6397  -10.6654   -3.6347 N   0  0  0  0  0  0  0  0  0  0  0  0
  -26.4510  -10.6214   -2.8214 C   0  0  0  0  0  0  0  0  0  0  0  0
  -25.3303  -10.8724   -3.3407 O   0  0  0  0  0  0  0  0  0  0  0  0
  -26.4861  -10.3229   -1.3412 C   0  0  0  0  0  0  0  0  0  0  0  0
  -26.2147   -8.9265   -0.8636 C   0  0  0  0  0  0  0  0  0  0  0  0
  -27.6100   -9.4767   -0.8152 C   0  0  0  0  0  0  0  0  0  0  0  0
  1  2  1  0
  2  3  2  0
  2  6  1  0
  3  4  1  0
  4  5  2  0
  4  7  1  0
  5  6  1  0
  8  9  1  0
  8 13  1  0
  8 14  1  0
  9 10  1  0
 10 11  1  0
 11 12  1  0
 11 15  1  0
 12 13  1  0
 15 16  2  0
 15 20  1  0
 16 17  1  0
 17 18  2  0
 18 19  1  0
 19 20  2  0
 19 21  1  0
 22 23  2  0
 22 27  1  0
 23 24  1  0
 24 25  2  0
 25 26  1  0
 25 28  1  0
 26 27  2  0
 28 29  1  0
 29 30  2  0
 31 32  1  0
 31 33  1  0
 32 33  1  0
 17  1  1  0
 22 21  1  0
 31 29  1  0
M  CHG  1   8   1
M  END
>  <BIOSOLVEIT.HYDE_ESTIMATED_AFFINITY_LOWER_BOUNDARY [nM]>  (3) 
822.641945

>  <BIOSOLVEIT.HYDE_ESTIMATED_AFFINITY_UPPER_BOUNDARY [nM]>  (3) 
81734.341061

>  <BIOSOLVEIT.LOGP>  (3) 
2.08612

>  <BIOSOLVEIT.MOLECULAR_WEIGHT>  (3) 
465.602

>  <BIOSOLVEIT.TPSA>  (3) 
103.27

>  <fragment_ids>  (3) 
{'AP': 0, 'SE': 0, 'FP': 0, 'GA': 0}

>  <smiles_ligand>  (3) 
Cc1cc(Nc2cc(N3CC[NH+](C)CC3)nc(Sc3ccc(NC(=O)C4CC4)cc3)n2)[nH]n1

>  <smiles_fragments_dummy>  (3) 
{'AP': 'Cc1cc(N)[nH]n1', 'SE': '[26*]c1cc(N2CC[NH+](C)CC2)nc(S[40*])n1', 'FP': 'O=CNc1ccccc1', 'GA': '[52*]C1CC1'}

>  <smiles_fragments>  (3) 
{'AP': '[22*]Nc1cc(C)n[nH]1', 'SE': 'C[NH+]1CCN(c2ccnc(S)n2)CC1', 'FP': '[39*]c1ccc(NC([54*])=O)cc1', 'GA': 'C1CC1'}

>  <BIOSOLVEIT.DOCKING_SCORE>  (3) 
12288.27

>  <filtered>  (3) 
0

$$$$
3amb_chainA_3
     RDKit          3D

 33 37  0  0  0  0  0  0  0  0999 V2000
  -30.7758  -10.4134   -6.7495 N   0  0  0  0  0  0  0  0  0  0  0  0
  -30.3140   -9.9964   -5.4559 C   0  0  0  0  0  0  0  0  0  0  0  0
  -30.8810  -10.3473   -4.2710 C   0  0  0  0  0  0  0  0  0  0  0  0
  -30.0826   -9.6993   -3.2754 C   0  0  0  0  0  0  0  0  0  0  0  0
  -29.1309   -9.0261   -3.8768 N   0  0  0  0  0  0  0  0  0  0  0  0
  -29.2250   -9.1753   -5.2278 N   0  0  0  0  0  0  0  0  0  0  0  0
  -30.3022   -9.7759   -1.7736 C   0  0  0  0  0  0  0  0  0  0  0  0
  -32.5354   -8.9640  -13.8242 N   0  0  0  0  0  0  0  0  0  0  0  0
  -33.0396   -9.8306  -12.7457 C   0  0  0  0  0  0  0  0  0  0  0  0
  -32.4800   -9.4352  -11.3874 C   0  0  0  0  0  0  0  0  0  0  0  0
  -31.0329   -9.1755  -11.4513 N   0  0  0  0  0  0  0  0  0  0  0  0
  -30.3747   -8.6274  -12.6481 C   0  0  0  0  0  0  0  0  0  0  0  0
  -31.0704   -9.0725  -13.9264 C   0  0  0  0  0  0  0  0  0  0  0  0
  -33.0895   -9.4840  -15.0825 C   0  0  0  0  0  0  0  0  0  0  0  0
  -30.2301   -9.4803  -10.3030 C   0  0  0  0  0  0  0  0  0  0  0  0
  -30.8653   -9.7930   -9.1050 C   0  0  0  0  0  0  0  0  0  0  0  0
  -30.1016  -10.0911   -7.9804 C   0  0  0  0  0  0  0  0  0  0  0  0
  -28.7615  -10.0654   -8.0986 N   0  0  0  0  0  0  0  0  0  0  0  0
  -28.1321   -9.7652   -9.2488 C   0  0  0  0  0  0  0  0  0  0  0  0
  -28.8848   -9.4791  -10.3264 N   0  0  0  0  0  0  0  0  0  0  0  0
  -26.3566   -9.7496   -9.3340 S   0  0  0  0  0  0  0  0  0  0  0  0
  -26.1903  -10.0356   -7.5726 C   0  0  0  0  0  0  0  0  0  0  0  0
  -26.4301  -11.3071   -7.0617 C   0  0  0  0  0  0  0  0  0  0  0  0
  -26.3057  -11.5428   -5.6962 C   0  0  0  0  0  0  0  0  0  0  0  0
  -25.9401  -10.4945   -4.8582 C   0  0  0  0  0  0  0  0  0  0  0  0
  -25.6993   -9.2219   -5.3659 C   0  0  0  0  0  0  0  0  0  0  0  0
  -25.8249   -8.9894   -6.7316 C   0  0  0  0  0  0  0  0  0  0  0  0
  -25.8077  -10.7235   -3.4473 N   0  0  0  0  0  0  0  0  0  0  0  0
  -26.3831   -9.8619   -2.4459 C   0  0  0  0  0  0  0  0  0  0  0  0
  -26.5285   -8.6337   -2.6887 O   0  0  0  0  0  0  0  0  0  0  0  0
  -26.7918  -10.3590   -1.0794 C   0  0  0  0  0  0  0  0  0  0  0  0
  -25.9202  -10.0612    0.1051 C   0  0  0  0  0  0  0  0  0  0  0  0
  -27.2299   -9.3476   -0.0591 C   0  0  0  0  0  0  0  0  0  0  0  0
  1  2  1  0
  2  3  2  0
  2  6  1  0
  3  4  1  0
  4  5  2  0
  4  7  1  0
  5  6  1  0
  8  9  1  0
  8 13  1  0
  8 14  1  0
  9 10  1  0
 10 11  1  0
 11 12  1  0
 11 15  1  0
 12 13  1  0
 15 16  2  0
 15 20  1  0
 16 17  1  0
 17 18  2  0
 18 19  1  0
 19 20  2  0
 19 21  1  0
 22 23  2  0
 22 27  1  0
 23 24  1  0
 24 25  2  0
 25 26  1  0
 25 28  1  0
 26 27  2  0
 28 29  1  0
 29 30  2  0
 31 32  1  0
 31 33  1  0
 32 33  1  0
 17  1  1  0
 22 21  1  0
 31 29  1  0
M  CHG  1   8   1
M  END
>  <BIOSOLVEIT.HYDE_ESTIMATED_AFFINITY_LOWER_BOUNDARY [nM]>  (4) 
12776.852479

>  <BIOSOLVEIT.HYDE_ESTIMATED_AFFINITY_UPPER_BOUNDARY [nM]>  (4) 
1269455.836565

>  <BIOSOLVEIT.LOGP>  (4) 
2.08612

>  <BIOSOLVEIT.MOLECULAR_WEIGHT>  (4) 
465.602

>  <BIOSOLVEIT.TPSA>  (4) 
103.27

>  <fragment_ids>  (4) 
{'AP': 0, 'SE': 0, 'FP': 0, 'GA': 0}

>  <smiles_ligand>  (4) 
Cc1cc(Nc2cc(N3CC[NH+](C)CC3)nc(Sc3ccc(NC(=O)C4CC4)cc3)n2)[nH]n1

>  <smiles_fragments_dummy>  (4) 
{'AP': 'Cc1cc(N)[nH]n1', 'SE': '[26*]c1cc(N2CC[NH+](C)CC2)nc(S[40*])n1', 'FP': 'O=CNc1ccccc1', 'GA': '[52*]C1CC1'}

>  <smiles_fragments>  (4) 
{'AP': '[22*]Nc1cc(C)n[nH]1', 'SE': 'C[NH+]1CCN(c2ccnc(S)n2)CC1', 'FP': '[39*]c1ccc(NC([54*])=O)cc1', 'GA': 'C1CC1'}

>  <BIOSOLVEIT.DOCKING_SCORE>  (4) 
12526.97

>  <filtered>  (4) 
0

$$$$
3amb_chainA_4
     RDKit          3D

 33 37  0  0  0  0  0  0  0  0999 V2000
  -32.4254   -9.5296   -7.4916 N   0  0  0  0  0  0  0  0  0  0  0  0
  -31.8720   -9.9300   -6.2291 C   0  0  0  0  0  0  0  0  0  0  0  0
  -32.4239   -9.6705   -5.0140 C   0  0  0  0  0  0  0  0  0  0  0  0
  -31.5249  -10.2594   -4.0687 C   0  0  0  0  0  0  0  0  0  0  0  0
  -30.5314  -10.8098   -4.7245 N   0  0  0  0  0  0  0  0  0  0  0  0
  -30.6952  -10.6376   -6.0662 N   0  0  0  0  0  0  0  0  0  0  0  0
  -31.6919  -10.2466   -2.5581 C   0  0  0  0  0  0  0  0  0  0  0  0
  -34.1544  -11.4924  -14.3204 N   0  0  0  0  0  0  0  0  0  0  0  0
  -33.3241  -12.4177  -13.4910 C   0  0  0  0  0  0  0  0  0  0  0  0
  -32.0586  -11.7713  -12.9044 C   0  0  0  0  0  0  0  0  0  0  0  0
  -32.3910  -10.4871  -12.2748 N   0  0  0  0  0  0  0  0  0  0  0  0
  -33.3283   -9.5862  -12.9582 C   0  0  0  0  0  0  0  0  0  0  0  0
  -33.6518  -10.1009  -14.3646 C   0  0  0  0  0  0  0  0  0  0  0  0
  -34.3081  -12.0090  -15.6921 C   0  0  0  0  0  0  0  0  0  0  0  0
  -31.6818  -10.0547  -11.0926 C   0  0  0  0  0  0  0  0  0  0  0  0
  -32.3677   -9.9969   -9.8831 C   0  0  0  0  0  0  0  0  0  0  0  0
  -31.7003   -9.5824   -8.7344 C   0  0  0  0  0  0  0  0  0  0  0  0
  -30.4006   -9.2503   -8.8409 N   0  0  0  0  0  0  0  0  0  0  0  0
  -29.7234   -9.3005  -10.0018 C   0  0  0  0  0  0  0  0  0  0  0  0
  -30.3831   -9.7030  -11.1028 N   0  0  0  0  0  0  0  0  0  0  0  0
  -28.0059   -8.8470  -10.0704 S   0  0  0  0  0  0  0  0  0  0  0  0
  -27.6852   -9.5036   -8.4341 C   0  0  0  0  0  0  0  0  0  0  0  0
  -27.2538  -10.8192   -8.2987 C   0  0  0  0  0  0  0  0  0  0  0  0
  -27.0022  -11.3421   -7.0342 C   0  0  0  0  0  0  0  0  0  0  0  0
  -27.1872  -10.5334   -5.9176 C   0  0  0  0  0  0  0  0  0  0  0  0
  -27.6181   -9.2174   -6.0494 C   0  0  0  0  0  0  0  0  0  0  0  0
  -27.8693   -8.6977   -7.3152 C   0  0  0  0  0  0  0  0  0  0  0  0
  -26.9310  -11.0598   -4.6068 N   0  0  0  0  0  0  0  0  0  0  0  0
  -27.0940  -10.2930   -3.3978 C   0  0  0  0  0  0  0  0  0  0  0  0
  -26.9175   -9.0453   -3.4219 O   0  0  0  0  0  0  0  0  0  0  0  0
  -27.4334  -10.9269   -2.0694 C   0  0  0  0  0  0  0  0  0  0  0  0
  -26.7886  -10.4077   -0.8180 C   0  0  0  0  0  0  0  0  0  0  0  0
  -28.2376  -10.1254   -1.0864 C   0  0  0  0  0  0  0  0  0  0  0  0
  1  2  1  0
  2  3  1  0
  2  6  2  0
  3  4  2  0
  4  5  1  0
  4  7  1  0
  5  6  1  0
  8  9  1  0
  8 13  1  0
  8 14  1  0
  9 10  1  0
 10 11  1  0
 11 12  1  0
 11 15  1  0
 12 13  1  0
 15 16  2  0
 15 20  1  0
 16 17  1  0
 17 18  2  0
 18 19  1  0
 19 20  2  0
 19 21  1  0
 22 23  2  0
 22 27  1  0
 23 24  1  0
 24 25  2  0
 25 26  1  0
 25 28  1  0
 26 27  2  0
 28 29  1  0
 29 30  2  0
 31 32  1  0
 31 33  1  0
 32 33  1  0
 17  1  1  0
 22 21  1  0
 31 29  1  0
M  CHG  1   8   1
M  END
>  <BIOSOLVEIT.HYDE_ESTIMATED_AFFINITY_LOWER_BOUNDARY [nM]>  (5) 
4500.772107

>  <BIOSOLVEIT.HYDE_ESTIMATED_AFFINITY_UPPER_BOUNDARY [nM]>  (5) 
447178.319516

>  <BIOSOLVEIT.LOGP>  (5) 
2.08612

>  <BIOSOLVEIT.MOLECULAR_WEIGHT>  (5) 
465.602

>  <BIOSOLVEIT.TPSA>  (5) 
103.27

>  <fragment_ids>  (5) 
{'AP': 0, 'SE': 0, 'FP': 0, 'GA': 0}

>  <smiles_ligand>  (5) 
Cc1cc(Nc2cc(N3CC[NH+](C)CC3)nc(Sc3ccc(NC(=O)C4CC4)cc3)n2)n[nH]1

>  <smiles_fragments_dummy>  (5) 
{'AP': 'Cc1cc(N)[nH]n1', 'SE': '[26*]c1cc(N2CC[NH+](C)CC2)nc(S[40*])n1', 'FP': 'O=CNc1ccccc1', 'GA': '[52*]C1CC1'}

>  <smiles_fragments>  (5) 
{'AP': '[22*]Nc1cc(C)n[nH]1', 'SE': 'C[NH+]1CCN(c2ccnc(S)n2)CC1', 'FP': '[39*]c1ccc(NC([54*])=O)cc1', 'GA': 'C1CC1'}

>  <BIOSOLVEIT.DOCKING_SCORE>  (5) 
13148.26

>  <filtered>  (5) 
0

$$$$
3amb_chainA_5
     RDKit          3D

 33 37  0  0  0  0  0  0  0  0999 V2000
  -32.3555   -9.5352   -7.1998 N   0  0  0  0  0  0  0  0  0  0  0  0
  -31.9167   -9.9590   -5.9004 C   0  0  0  0  0  0  0  0  0  0  0  0
  -32.5324   -9.6536   -4.7274 C   0  0  0  0  0  0  0  0  0  0  0  0
  -31.7401  -10.2905   -3.7198 C   0  0  0  0  0  0  0  0  0  0  0  0
  -30.7419  -10.9095   -4.3033 N   0  0  0  0  0  0  0  0  0  0  0  0
  -30.8020  -10.7392   -5.6537 N   0  0  0  0  0  0  0  0  0  0  0  0
  -32.0088  -10.2534   -2.2244 C   0  0  0  0  0  0  0  0  0  0  0  0
  -33.6850  -11.2717  -14.1796 N   0  0  0  0  0  0  0  0  0  0  0  0
  -32.9436  -12.2596  -13.3383 C   0  0  0  0  0  0  0  0  0  0  0  0
  -31.6968  -11.6853  -12.6464 C   0  0  0  0  0  0  0  0  0  0  0  0
  -32.0234  -10.4149  -11.9866 N   0  0  0  0  0  0  0  0  0  0  0  0
  -32.8817   -9.4530  -12.6903 C   0  0  0  0  0  0  0  0  0  0  0  0
  -33.1314   -9.8998  -14.1343 C   0  0  0  0  0  0  0  0  0  0  0  0
  -33.7676  -11.7282  -15.5787 C   0  0  0  0  0  0  0  0  0  0  0  0
  -31.3774  -10.0564  -10.7449 C   0  0  0  0  0  0  0  0  0  0  0  0
  -32.1483   -9.9668   -9.5898 C   0  0  0  0  0  0  0  0  0  0  0  0
  -31.5425   -9.6222   -8.3852 C   0  0  0  0  0  0  0  0  0  0  0  0
  -30.2176   -9.3872   -8.3858 N   0  0  0  0  0  0  0  0  0  0  0  0
  -29.4586   -9.4695   -9.4929 C   0  0  0  0  0  0  0  0  0  0  0  0
  -30.0594   -9.8032  -10.6492 N   0  0  0  0  0  0  0  0  0  0  0  0
  -27.7121   -9.1453   -9.4215 S   0  0  0  0  0  0  0  0  0  0  0  0
  -27.6123   -9.6289   -7.6988 C   0  0  0  0  0  0  0  0  0  0  0  0
  -27.6048  -10.9801   -7.3681 C   0  0  0  0  0  0  0  0  0  0  0  0
  -27.5287  -11.3695   -6.0347 C   0  0  0  0  0  0  0  0  0  0  0  0
  -27.4601  -10.3930   -5.0465 C   0  0  0  0  0  0  0  0  0  0  0  0
  -27.4673   -9.0409   -5.3736 C   0  0  0  0  0  0  0  0  0  0  0  0
  -27.5437   -8.6548   -6.7078 C   0  0  0  0  0  0  0  0  0  0  0  0
  -27.3811  -10.7805   -3.6666 N   0  0  0  0  0  0  0  0  0  0  0  0
  -27.9089   -9.9850   -2.5872 C   0  0  0  0  0  0  0  0  0  0  0  0
  -27.9486   -8.7301   -2.6987 O   0  0  0  0  0  0  0  0  0  0  0  0
  -28.3895  -10.5884   -1.2885 C   0  0  0  0  0  0  0  0  0  0  0  0
  -28.4809  -12.0804   -1.1576 C   0  0  0  0  0  0  0  0  0  0  0  0
  -27.3960  -11.3308   -0.4415 C   0  0  0  0  0  0  0  0  0  0  0  0
  1  2  1  0
  2  3  1  0
  2  6  2  0
  3  4  2  0
  4  5  1  0
  4  7  1  0
  5  6  1  0
  8  9  1  0
  8 13  1  0
  8 14  1  0
  9 10  1  0
 10 11  1  0
 11 12  1  0
 11 15  1  0
 12 13  1  0
 15 16  2  0
 15 20  1  0
 16 17  1  0
 17 18  2  0
 18 19  1  0
 19 20  2  0
 19 21  1  0
 22 23  2  0
 22 27  1  0
 23 24  1  0
 24 25  2  0
 25 26  1  0
 25 28  1  0
 26 27  2  0
 28 29  1  0
 29 30  2  0
 31 32  1  0
 31 33  1  0
 32 33  1  0
 17  1  1  0
 22 21  1  0
 31 29  1  0
M  CHG  1   8   1
M  END
>  <BIOSOLVEIT.HYDE_ESTIMATED_AFFINITY_LOWER_BOUNDARY [nM]>  (6) 
17274.080440

>  <BIOSOLVEIT.HYDE_ESTIMATED_AFFINITY_UPPER_BOUNDARY [nM]>  (6) 
1716282.024171

>  <BIOSOLVEIT.LOGP>  (6) 
2.08612

>  <BIOSOLVEIT.MOLECULAR_WEIGHT>  (6) 
465.602

>  <BIOSOLVEIT.TPSA>  (6) 
103.27

>  <fragment_ids>  (6) 
{'AP': 0, 'SE': 0, 'FP': 0, 'GA': 0}

>  <smiles_ligand>  (6) 
Cc1cc(Nc2cc(N3CC[NH+](C)CC3)nc(Sc3ccc(NC(=O)C4CC4)cc3)n2)n[nH]1

>  <smiles_fragments_dummy>  (6) 
{'AP': 'Cc1cc(N)[nH]n1', 'SE': '[26*]c1cc(N2CC[NH+](C)CC2)nc(S[40*])n1', 'FP': 'O=CNc1ccccc1', 'GA': '[52*]C1CC1'}

>  <smiles_fragments>  (6) 
{'AP': '[22*]Nc1cc(C)n[nH]1', 'SE': 'C[NH+]1CCN(c2ccnc(S)n2)CC1', 'FP': '[39*]c1ccc(NC([54*])=O)cc1', 'GA': 'C1CC1'}

>  <BIOSOLVEIT.DOCKING_SCORE>  (6) 
13442.77

>  <filtered>  (6) 
0

$$$$
3amb_chainA_6
     RDKit          3D

 33 37  0  0  0  0  0  0  0  0999 V2000
  -32.3286   -9.5339   -7.3280 N   0  0  0  0  0  0  0  0  0  0  0  0
  -31.8496   -9.9145   -6.0295 C   0  0  0  0  0  0  0  0  0  0  0  0
  -32.4951   -9.6788   -4.8563 C   0  0  0  0  0  0  0  0  0  0  0  0
  -31.6422  -10.2337   -3.8497 C   0  0  0  0  0  0  0  0  0  0  0  0
  -30.5844  -10.7437   -4.4338 N   0  0  0  0  0  0  0  0  0  0  0  0
  -30.6604  -10.5757   -5.7837 N   0  0  0  0  0  0  0  0  0  0  0  0
  -31.9151  -10.2300   -2.3547 C   0  0  0  0  0  0  0  0  0  0  0  0
  -34.0112  -11.3481  -14.2168 N   0  0  0  0  0  0  0  0  0  0  0  0
  -33.2004  -12.3442  -13.4529 C   0  0  0  0  0  0  0  0  0  0  0  0
  -31.9245  -11.7640  -12.8214 C   0  0  0  0  0  0  0  0  0  0  0  0
  -32.2342  -10.5208  -12.1045 N   0  0  0  0  0  0  0  0  0  0  0  0
  -33.1528   -9.5571  -12.7247 C   0  0  0  0  0  0  0  0  0  0  0  0
  -33.4825   -9.9666  -14.1638 C   0  0  0  0  0  0  0  0  0  0  0  0
  -34.1713  -11.7652  -15.6215 C   0  0  0  0  0  0  0  0  0  0  0  0
  -31.5198  -10.1848  -10.8944 C   0  0  0  0  0  0  0  0  0  0  0  0
  -32.2396  -10.0218   -9.7145 C   0  0  0  0  0  0  0  0  0  0  0  0
  -31.5678   -9.6979   -8.5396 C   0  0  0  0  0  0  0  0  0  0  0  0
  -30.2309   -9.5543   -8.5923 N   0  0  0  0  0  0  0  0  0  0  0  0
  -29.5206   -9.7084   -9.7239 C   0  0  0  0  0  0  0  0  0  0  0  0
  -30.1851  -10.0210  -10.8510 N   0  0  0  0  0  0  0  0  0  0  0  0
  -27.7548   -9.5035   -9.7216 S   0  0  0  0  0  0  0  0  0  0  0  0
  -27.6688   -9.5783   -7.9330 C   0  0  0  0  0  0  0  0  0  0  0  0
  -27.3300  -10.7779   -7.3153 C   0  0  0  0  0  0  0  0  0  0  0  0
  -27.2606  -10.8503   -5.9276 C   0  0  0  0  0  0  0  0  0  0  0  0
  -27.5329   -9.7122   -5.1754 C   0  0  0  0  0  0  0  0  0  0  0  0
  -27.8717   -8.5112   -5.7899 C   0  0  0  0  0  0  0  0  0  0  0  0
  -27.9406   -8.4422   -7.1775 C   0  0  0  0  0  0  0  0  0  0  0  0
  -27.4648   -9.7726   -3.7427 N   0  0  0  0  0  0  0  0  0  0  0  0
  -26.5019   -9.0377   -2.9622 C   0  0  0  0  0  0  0  0  0  0  0  0
  -25.3719   -8.7732   -3.4538 O   0  0  0  0  0  0  0  0  0  0  0  0
  -26.7696   -8.5946   -1.5433 C   0  0  0  0  0  0  0  0  0  0  0  0
  -27.6926   -9.4031   -0.6796 C   0  0  0  0  0  0  0  0  0  0  0  0
  -26.2142   -9.4276   -0.4238 C   0  0  0  0  0  0  0  0  0  0  0  0
  1  2  1  0
  2  3  2  0
  2  6  1  0
  3  4  1  0
  4  5  2  0
  4  7  1  0
  5  6  1  0
  8  9  1  0
  8 13  1  0
  8 14  1  0
  9 10  1  0
 10 11  1  0
 11 12  1  0
 11 15  1  0
 12 13  1  0
 15 16  2  0
 15 20  1  0
 16 17  1  0
 17 18  2  0
 18 19  1  0
 19 20  2  0
 19 21  1  0
 22 23  2  0
 22 27  1  0
 23 24  1  0
 24 25  2  0
 25 26  1  0
 25 28  1  0
 26 27  2  0
 28 29  1  0
 29 30  2  0
 31 32  1  0
 31 33  1  0
 32 33  1  0
 17  1  1  0
 22 21  1  0
 31 29  1  0
M  CHG  1   8   1
M  END
>  <BIOSOLVEIT.HYDE_ESTIMATED_AFFINITY_LOWER_BOUNDARY [nM]>  (7) 
1750.478747

>  <BIOSOLVEIT.HYDE_ESTIMATED_AFFINITY_UPPER_BOUNDARY [nM]>  (7) 
173920.413152

>  <BIOSOLVEIT.LOGP>  (7) 
2.08612

>  <BIOSOLVEIT.MOLECULAR_WEIGHT>  (7) 
465.602

>  <BIOSOLVEIT.TPSA>  (7) 
103.27

>  <fragment_ids>  (7) 
{'AP': 0, 'SE': 0, 'FP': 0, 'GA': 0}

>  <smiles_ligand>  (7) 
Cc1cc(Nc2cc(N3CC[NH+](C)CC3)nc(Sc3ccc(NC(=O)C4CC4)cc3)n2)[nH]n1

>  <smiles_fragments_dummy>  (7) 
{'AP': 'Cc1cc(N)[nH]n1', 'SE': '[26*]c1cc(N2CC[NH+](C)CC2)nc(S[40*])n1', 'FP': 'O=CNc1ccccc1', 'GA': '[52*]C1CC1'}

>  <smiles_fragments>  (7) 
{'AP': '[22*]Nc1cc(C)n[nH]1', 'SE': 'C[NH+]1CCN(c2ccnc(S)n2)CC1', 'FP': '[39*]c1ccc(NC([54*])=O)cc1', 'GA': 'C1CC1'}

>  <BIOSOLVEIT.DOCKING_SCORE>  (7) 
14389.67

>  <filtered>  (7) 
0

$$$$
3amb_chainA_7
     RDKit          3D

 33 37  0  0  0  0  0  0  0  0999 V2000
  -32.2646   -9.4281   -7.4301 N   0  0  0  0  0  0  0  0  0  0  0  0
  -31.8202   -9.8685   -6.1382 C   0  0  0  0  0  0  0  0  0  0  0  0
  -32.4652   -9.6309   -4.9650 C   0  0  0  0  0  0  0  0  0  0  0  0
  -31.6534  -10.2569   -3.9661 C   0  0  0  0  0  0  0  0  0  0  0  0
  -30.6175  -10.8059   -4.5541 N   0  0  0  0  0  0  0  0  0  0  0  0
  -30.6700  -10.5977   -5.8996 N   0  0  0  0  0  0  0  0  0  0  0  0
  -31.9418  -10.2793   -2.4741 C   0  0  0  0  0  0  0  0  0  0  0  0
  -34.0804  -11.5775  -14.1880 N   0  0  0  0  0  0  0  0  0  0  0  0
  -33.2460  -12.5336  -13.3987 C   0  0  0  0  0  0  0  0  0  0  0  0
  -31.9610  -11.9181  -12.8216 C   0  0  0  0  0  0  0  0  0  0  0  0
  -32.2640  -10.6460  -12.1539 N   0  0  0  0  0  0  0  0  0  0  0  0
  -33.2028   -9.7166  -12.7960 C   0  0  0  0  0  0  0  0  0  0  0  0
  -33.5606  -10.1918  -14.2078 C   0  0  0  0  0  0  0  0  0  0  0  0
  -34.2677  -12.0576  -15.5689 C   0  0  0  0  0  0  0  0  0  0  0  0
  -31.5261  -10.2524  -10.9758 C   0  0  0  0  0  0  0  0  0  0  0  0
  -32.2225  -10.0315   -9.7914 C   0  0  0  0  0  0  0  0  0  0  0  0
  -31.5278   -9.6514   -8.6470 C   0  0  0  0  0  0  0  0  0  0  0  0
  -30.1922   -9.5117   -8.7328 N   0  0  0  0  0  0  0  0  0  0  0  0
  -29.5043   -9.7211   -9.8694 C   0  0  0  0  0  0  0  0  0  0  0  0
  -30.1907  -10.0876  -10.9666 N   0  0  0  0  0  0  0  0  0  0  0  0
  -27.7387   -9.5178   -9.9117 S   0  0  0  0  0  0  0  0  0  0  0  0
  -27.5990   -9.6690   -8.1314 C   0  0  0  0  0  0  0  0  0  0  0  0
  -27.3524  -10.9175   -7.5694 C   0  0  0  0  0  0  0  0  0  0  0  0
  -27.2427  -11.0494   -6.1888 C   0  0  0  0  0  0  0  0  0  0  0  0
  -27.3820   -9.9211   -5.3872 C   0  0  0  0  0  0  0  0  0  0  0  0
  -27.6284   -8.6711   -5.9459 C   0  0  0  0  0  0  0  0  0  0  0  0
  -27.7378   -8.5427   -7.3267 C   0  0  0  0  0  0  0  0  0  0  0  0
  -27.2709  -10.0425   -3.9612 N   0  0  0  0  0  0  0  0  0  0  0  0
  -28.2187   -9.4694   -3.0395 C   0  0  0  0  0  0  0  0  0  0  0  0
  -28.8339   -8.4150   -3.3528 O   0  0  0  0  0  0  0  0  0  0  0  0
  -28.4876  -10.0582   -1.6747 C   0  0  0  0  0  0  0  0  0  0  0  0
  -28.3185  -11.5337   -1.4614 C   0  0  0  0  0  0  0  0  0  0  0  0
  -27.3204  -10.5743   -0.8829 C   0  0  0  0  0  0  0  0  0  0  0  0
  1  2  1  0
  2  3  2  0
  2  6  1  0
  3  4  1  0
  4  5  2  0
  4  7  1  0
  5  6  1  0
  8  9  1  0
  8 13  1  0
  8 14  1  0
  9 10  1  0
 10 11  1  0
 11 12  1  0
 11 15  1  0
 12 13  1  0
 15 16  2  0
 15 20  1  0
 16 17  1  0
 17 18  2  0
 18 19  1  0
 19 20  2  0
 19 21  1  0
 22 23  2  0
 22 27  1  0
 23 24  1  0
 24 25  2  0
 25 26  1  0
 25 28  1  0
 26 27  2  0
 28 29  1  0
 29 30  2  0
 31 32  1  0
 31 33  1  0
 32 33  1  0
 17  1  1  0
 22 21  1  0
 31 29  1  0
M  CHG  1   8   1
M  END
>  <BIOSOLVEIT.HYDE_ESTIMATED_AFFINITY_LOWER_BOUNDARY [nM]>  (8) 
10287.807244

>  <BIOSOLVEIT.HYDE_ESTIMATED_AFFINITY_UPPER_BOUNDARY [nM]>  (8) 
1022154.476044

>  <BIOSOLVEIT.LOGP>  (8) 
2.08612

>  <BIOSOLVEIT.MOLECULAR_WEIGHT>  (8) 
465.602

>  <BIOSOLVEIT.TPSA>  (8) 
103.27

>  <fragment_ids>  (8) 
{'AP': 0, 'SE': 0, 'FP': 0, 'GA': 0}

>  <smiles_ligand>  (8) 
Cc1cc(Nc2cc(N3CC[NH+](C)CC3)nc(Sc3ccc(NC(=O)C4CC4)cc3)n2)[nH]n1

>  <smiles_fragments_dummy>  (8) 
{'AP': 'Cc1cc(N)[nH]n1', 'SE': '[26*]c1cc(N2CC[NH+](C)CC2)nc(S[40*])n1', 'FP': 'O=CNc1ccccc1', 'GA': '[52*]C1CC1'}

>  <smiles_fragments>  (8) 
{'AP': '[22*]Nc1cc(C)n[nH]1', 'SE': 'C[NH+]1CCN(c2ccnc(S)n2)CC1', 'FP': '[39*]c1ccc(NC([54*])=O)cc1', 'GA': 'C1CC1'}

>  <BIOSOLVEIT.DOCKING_SCORE>  (8) 
14645.43

>  <filtered>  (8) 
0

$$$$
3amb_chainA_8
     RDKit          3D

 33 37  0  0  0  0  0  0  0  0999 V2000
  -32.4730   -9.6803   -7.2202 N   0  0  0  0  0  0  0  0  0  0  0  0
  -31.8959   -9.9962   -5.9445 C   0  0  0  0  0  0  0  0  0  0  0  0
  -32.5163   -9.8432   -4.7444 C   0  0  0  0  0  0  0  0  0  0  0  0
  -31.5586  -10.2848   -3.7766 C   0  0  0  0  0  0  0  0  0  0  0  0
  -30.4702  -10.6572   -4.4066 N   0  0  0  0  0  0  0  0  0  0  0  0
  -30.6232  -10.5012   -5.7514 N   0  0  0  0  0  0  0  0  0  0  0  0
  -31.7670  -10.3146   -2.2716 C   0  0  0  0  0  0  0  0  0  0  0  0
  -34.2619   -8.5148  -14.2101 N   0  0  0  0  0  0  0  0  0  0  0  0
  -34.3506   -9.8640  -13.5738 C   0  0  0  0  0  0  0  0  0  0  0  0
  -33.0399  -10.3415  -12.9277 C   0  0  0  0  0  0  0  0  0  0  0  0
  -32.4764   -9.2817  -12.0822 N   0  0  0  0  0  0  0  0  0  0  0  0
  -32.4958   -7.8984  -12.5754 C   0  0  0  0  0  0  0  0  0  0  0  0
  -32.9522   -7.8471  -14.0370 C   0  0  0  0  0  0  0  0  0  0  0  0
  -34.5980   -8.5851  -15.6436 C   0  0  0  0  0  0  0  0  0  0  0  0
  -31.7720   -9.6216  -10.8674 C   0  0  0  0  0  0  0  0  0  0  0  0
  -32.4348   -9.4944   -9.6503 C   0  0  0  0  0  0  0  0  0  0  0  0
  -31.7714   -9.8171   -8.4703 C   0  0  0  0  0  0  0  0  0  0  0  0
  -30.4987  -10.2459   -8.5548 N   0  0  0  0  0  0  0  0  0  0  0  0
  -29.8441  -10.3744   -9.7226 C   0  0  0  0  0  0  0  0  0  0  0  0
  -30.4993  -10.0580  -10.8540 N   0  0  0  0  0  0  0  0  0  0  0  0
  -28.1616  -10.9471   -9.7611 S   0  0  0  0  0  0  0  0  0  0  0  0
  -27.7620  -10.1221   -8.2211 C   0  0  0  0  0  0  0  0  0  0  0  0
  -27.1881  -10.8514   -7.1847 C   0  0  0  0  0  0  0  0  0  0  0  0
  -26.8739  -10.2238   -5.9835 C   0  0  0  0  0  0  0  0  0  0  0  0
  -27.1404   -8.8662   -5.8384 C   0  0  0  0  0  0  0  0  0  0  0  0
  -27.7138   -8.1340   -6.8728 C   0  0  0  0  0  0  0  0  0  0  0  0
  -28.0273   -8.7646   -8.0725 C   0  0  0  0  0  0  0  0  0  0  0  0
  -26.8209   -8.2058   -4.6045 N   0  0  0  0  0  0  0  0  0  0  0  0
  -27.6433   -8.2882   -3.4241 C   0  0  0  0  0  0  0  0  0  0  0  0
  -28.8889   -8.4410   -3.5411 O   0  0  0  0  0  0  0  0  0  0  0  0
  -27.0817   -8.1582   -2.0279 C   0  0  0  0  0  0  0  0  0  0  0  0
  -25.5953   -8.1914   -1.8246 C   0  0  0  0  0  0  0  0  0  0  0  0
  -26.3430   -6.8989   -1.6755 C   0  0  0  0  0  0  0  0  0  0  0  0
  1  2  1  0
  2  3  2  0
  2  6  1  0
  3  4  1  0
  4  5  2  0
  4  7  1  0
  5  6  1  0
  8  9  1  0
  8 13  1  0
  8 14  1  0
  9 10  1  0
 10 11  1  0
 11 12  1  0
 11 15  1  0
 12 13  1  0
 15 16  2  0
 15 20  1  0
 16 17  1  0
 17 18  2  0
 18 19  1  0
 19 20  2  0
 19 21  1  0
 22 23  2  0
 22 27  1  0
 23 24  1  0
 24 25  2  0
 25 26  1  0
 25 28  1  0
 26 27  2  0
 28 29  1  0
 29 30  2  0
 31 32  1  0
 31 33  1  0
 32 33  1  0
 17  1  1  0
 22 21  1  0
 31 29  1  0
M  CHG  1   8   1
M  END
>  <BIOSOLVEIT.HYDE_ESTIMATED_AFFINITY_LOWER_BOUNDARY [nM]>  (9) 
2003.858704

>  <BIOSOLVEIT.HYDE_ESTIMATED_AFFINITY_UPPER_BOUNDARY [nM]>  (9) 
199095.209984

>  <BIOSOLVEIT.LOGP>  (9) 
2.08612

>  <BIOSOLVEIT.MOLECULAR_WEIGHT>  (9) 
465.602

>  <BIOSOLVEIT.TPSA>  (9) 
103.27

>  <fragment_ids>  (9) 
{'AP': 0, 'SE': 0, 'FP': 0, 'GA': 0}

>  <smiles_ligand>  (9) 
Cc1cc(Nc2cc(N3CC[NH+](C)CC3)nc(Sc3ccc(NC(=O)C4CC4)cc3)n2)[nH]n1

>  <smiles_fragments_dummy>  (9) 
{'AP': 'Cc1cc(N)[nH]n1', 'SE': '[26*]c1cc(N2CC[NH+](C)CC2)nc(S[40*])n1', 'FP': 'O=CNc1ccccc1', 'GA': '[52*]C1CC1'}

>  <smiles_fragments>  (9) 
{'AP': '[22*]Nc1cc(C)n[nH]1', 'SE': 'C[NH+]1CCN(c2ccnc(S)n2)CC1', 'FP': '[39*]c1ccc(NC([54*])=O)cc1', 'GA': 'C1CC1'}

>  <BIOSOLVEIT.DOCKING_SCORE>  (9) 
14924.50

>  <filtered>  (9) 
0

$$$$
3amb_chainA_9
     RDKit          3D

 33 37  0  0  0  0  0  0  0  0999 V2000
  -32.2635   -9.3888   -7.2702 N   0  0  0  0  0  0  0  0  0  0  0  0
  -31.7171   -9.8112   -6.0120 C   0  0  0  0  0  0  0  0  0  0  0  0
  -30.4358   -9.6062   -5.6060 C   0  0  0  0  0  0  0  0  0  0  0  0
  -30.3643  -10.1951   -4.3034 C   0  0  0  0  0  0  0  0  0  0  0  0
  -31.5385  -10.6995   -4.0086 N   0  0  0  0  0  0  0  0  0  0  0  0
  -32.4154  -10.4895   -5.0301 N   0  0  0  0  0  0  0  0  0  0  0  0
  -29.1336  -10.2325   -3.4126 C   0  0  0  0  0  0  0  0  0  0  0  0
  -34.3237   -8.5143  -14.2298 N   0  0  0  0  0  0  0  0  0  0  0  0
  -34.3847   -9.8638  -13.5905 C   0  0  0  0  0  0  0  0  0  0  0  0
  -33.0551  -10.3276  -12.9738 C   0  0  0  0  0  0  0  0  0  0  0  0
  -32.4833   -9.2615  -12.1419 N   0  0  0  0  0  0  0  0  0  0  0  0
  -32.5276   -7.8789  -12.6357 C   0  0  0  0  0  0  0  0  0  0  0  0
  -33.0173   -7.8335  -14.0866 C   0  0  0  0  0  0  0  0  0  0  0  0
  -34.6914   -8.5894  -15.6551 C   0  0  0  0  0  0  0  0  0  0  0  0
  -31.7483   -9.5932  -10.9430 C   0  0  0  0  0  0  0  0  0  0  0  0
  -32.3348   -9.3418   -9.7063 C   0  0  0  0  0  0  0  0  0  0  0  0
  -31.6410   -9.6548   -8.5412 C   0  0  0  0  0  0  0  0  0  0  0  0
  -30.4147  -10.1961   -8.6591 N   0  0  0  0  0  0  0  0  0  0  0  0
  -29.8340  -10.4454   -9.8462 C   0  0  0  0  0  0  0  0  0  0  0  0
  -30.5177  -10.1367  -10.9629 N   0  0  0  0  0  0  0  0  0  0  0  0
  -28.2095  -11.1626   -9.9286 S   0  0  0  0  0  0  0  0  0  0  0  0
  -27.7211  -10.4320   -8.3668 C   0  0  0  0  0  0  0  0  0  0  0  0
  -27.5139  -11.2538   -7.2636 C   0  0  0  0  0  0  0  0  0  0  0  0
  -27.1355  -10.6996   -6.0448 C   0  0  0  0  0  0  0  0  0  0  0  0
  -26.9689   -9.3219   -5.9495 C   0  0  0  0  0  0  0  0  0  0  0  0
  -27.1751   -8.4973   -7.0507 C   0  0  0  0  0  0  0  0  0  0  0  0
  -27.5537   -9.0545   -8.2679 C   0  0  0  0  0  0  0  0  0  0  0  0
  -26.5784   -8.7368   -4.6982 N   0  0  0  0  0  0  0  0  0  0  0  0
  -27.1337   -7.5086   -4.1887 C   0  0  0  0  0  0  0  0  0  0  0  0
  -27.5314   -6.6231   -4.9926 O   0  0  0  0  0  0  0  0  0  0  0  0
  -27.2281   -7.2071   -2.7116 C   0  0  0  0  0  0  0  0  0  0  0  0
  -26.8517   -8.2657   -1.7170 C   0  0  0  0  0  0  0  0  0  0  0  0
  -25.9515   -7.0843   -1.9301 C   0  0  0  0  0  0  0  0  0  0  0  0
  1  2  1  0
  2  3  2  0
  2  6  1  0
  3  4  1  0
  4  5  2  0
  4  7  1  0
  5  6  1  0
  8  9  1  0
  8 13  1  0
  8 14  1  0
  9 10  1  0
 10 11  1  0
 11 12  1  0
 11 15  1  0
 12 13  1  0
 15 16  2  0
 15 20  1  0
 16 17  1  0
 17 18  2  0
 18 19  1  0
 19 20  2  0
 19 21  1  0
 22 23  2  0
 22 27  1  0
 23 24  1  0
 24 25  2  0
 25 26  1  0
 25 28  1  0
 26 27  2  0
 28 29  1  0
 29 30  2  0
 31 32  1  0
 31 33  1  0
 32 33  1  0
 17  1  1  0
 22 21  1  0
 31 29  1  0
M  CHG  1   8   1
M  END
>  <BIOSOLVEIT.HYDE_ESTIMATED_AFFINITY_LOWER_BOUNDARY [nM]>  (10) 
69569325.119550

>  <BIOSOLVEIT.HYDE_ESTIMATED_AFFINITY_UPPER_BOUNDARY [nM]>  (10) 
6912123777.030274

>  <BIOSOLVEIT.LOGP>  (10) 
2.08612

>  <BIOSOLVEIT.MOLECULAR_WEIGHT>  (10) 
465.602

>  <BIOSOLVEIT.TPSA>  (10) 
103.27

>  <fragment_ids>  (10) 
{'AP': 0, 'SE': 0, 'FP': 0, 'GA': 0}

>  <smiles_ligand>  (10) 
Cc1cc(Nc2cc(N3CC[NH+](C)CC3)nc(Sc3ccc(NC(=O)C4CC4)cc3)n2)[nH]n1

>  <smiles_fragments_dummy>  (10) 
{'AP': 'Cc1cc(N)[nH]n1', 'SE': '[26*]c1cc(N2CC[NH+](C)CC2)nc(S[40*])n1', 'FP': 'O=CNc1ccccc1', 'GA': '[52*]C1CC1'}

>  <smiles_fragments>  (10) 
{'AP': '[22*]Nc1cc(C)n[nH]1', 'SE': 'C[NH+]1CCN(c2ccnc(S)n2)CC1', 'FP': '[39*]c1ccc(NC([54*])=O)cc1', 'GA': 'C1CC1'}

>  <BIOSOLVEIT.DOCKING_SCORE>  (10) 
15580.53

>  <filtered>  (10) 
0

$$$$
3amb_chainA_1
     RDKit          3D

 33 37  0  0  0  0  0  0  0  0999 V2000
  -31.4927   -9.5255   -9.1034 N   0  0  0  0  0  0  0  0  0  0  0  0
  -31.4409   -9.4882   -7.6695 C   0  0  0  0  0  0  0  0  0  0  0  0
  -32.3083  -10.1237   -6.8374 C   0  0  0  0  0  0  0  0  0  0  0  0
  -31.8591   -9.7962   -5.5185 C   0  0  0  0  0  0  0  0  0  0  0  0
  -30.8056   -9.0212   -5.6168 N   0  0  0  0  0  0  0  0  0  0  0  0
  -30.5009   -8.7985   -6.9261 N   0  0  0  0  0  0  0  0  0  0  0  0
  -32.4974  -10.2655   -4.2215 C   0  0  0  0  0  0  0  0  0  0  0  0
  -29.9475   -9.0027  -16.3272 N   0  0  0  0  0  0  0  0  0  0  0  0
  -28.7456   -9.6691  -15.7959 C   0  0  0  0  0  0  0  0  0  0  0  0
  -28.3421   -9.1849  -14.4103 C   0  0  0  0  0  0  0  0  0  0  0  0
  -29.5191   -9.0599  -13.5359 N   0  0  0  0  0  0  0  0  0  0  0  0
  -30.8667   -8.7079  -14.0146 C   0  0  0  0  0  0  0  0  0  0  0  0
  -31.1009   -9.2083  -15.4341 C   0  0  0  0  0  0  0  0  0  0  0  0
  -29.7126   -7.5777  -16.6128 C   0  0  0  0  0  0  0  0  0  0  0  0
  -29.3503   -9.3298  -12.1314 C   0  0  0  0  0  0  0  0  0  0  0  0
  -30.4689   -9.3007  -11.3041 C   0  0  0  0  0  0  0  0  0  0  0  0
  -30.3241   -9.5589   -9.9443 C   0  0  0  0  0  0  0  0  0  0  0  0
  -29.0916   -9.8307   -9.4780 N   0  0  0  0  0  0  0  0  0  0  0  0
  -28.0005   -9.8627  -10.2638 C   0  0  0  0  0  0  0  0  0  0  0  0
  -28.1576   -9.6107  -11.5757 N   0  0  0  0  0  0  0  0  0  0  0  0
  -26.4009  -10.2290   -9.5803 S   0  0  0  0  0  0  0  0  0  0  0  0
  -26.9954  -10.0698   -7.8973 C   0  0  0  0  0  0  0  0  0  0  0  0
  -27.5719  -11.1695   -7.2698 C   0  0  0  0  0  0  0  0  0  0  0  0
  -28.0387  -11.0595   -5.9638 C   0  0  0  0  0  0  0  0  0  0  0  0
  -27.9195   -9.8419   -5.3020 C   0  0  0  0  0  0  0  0  0  0  0  0
  -27.3434   -8.7403   -5.9264 C   0  0  0  0  0  0  0  0  0  0  0  0
  -26.8780   -8.8535   -7.2324 C   0  0  0  0  0  0  0  0  0  0  0  0
  -28.3966   -9.7143   -3.9541 N   0  0  0  0  0  0  0  0  0  0  0  0
  -27.5714   -9.9422   -2.7951 C   0  0  0  0  0  0  0  0  0  0  0  0
  -26.6223  -10.7691   -2.8580 O   0  0  0  0  0  0  0  0  0  0  0  0
  -27.8161   -9.2562   -1.4718 C   0  0  0  0  0  0  0  0  0  0  0  0
  -27.4103   -9.9407   -0.1998 C   0  0  0  0  0  0  0  0  0  0  0  0
  -26.6269   -8.7623   -0.6989 C   0  0  0  0  0  0  0  0  0  0  0  0
  1  2  1  0
  2  3  2  0
  2  6  1  0
  3  4  1  0
  4  5  2  0
  4  7  1  0
  5  6  1  0
  8  9  1  0
  8 13  1  0
  8 14  1  0
  9 10  1  0
 10 11  1  0
 11 12  1  0
 11 15  1  0
 12 13  1  0
 15 16  2  0
 15 20  1  0
 16 17  1  0
 17 18  2  0
 18 19  1  0
 19 20  2  0
 19 21  1  0
 22 23  2  0
 22 27  1  0
 23 24  1  0
 24 25  2  0
 25 26  1  0
 25 28  1  0
 26 27  2  0
 28 29  1  0
 29 30  2  0
 31 32  1  0
 31 33  1  0
 32 33  1  0
 17  1  1  0
 22 21  1  0
 31 29  1  0
M  CHG  1   8   1
M  END
>  <BIOSOLVEIT.HYDE_ESTIMATED_AFFINITY_LOWER_BOUNDARY [nM]>  (11) 
305846.223650

>  <BIOSOLVEIT.HYDE_ESTIMATED_AFFINITY_UPPER_BOUNDARY [nM]>  (11) 
30387630.625569

>  <BIOSOLVEIT.LOGP>  (11) 
2.08612

>  <BIOSOLVEIT.MOLECULAR_WEIGHT>  (11) 
465.602

>  <BIOSOLVEIT.TPSA>  (11) 
103.27

>  <fragment_ids>  (11) 
{'AP': 0, 'SE': 0, 'FP': 0, 'GA': 0}

>  <smiles_ligand>  (11) 
Cc1cc(Nc2cc(N3CC[NH+](C)CC3)nc(Sc3ccc(NC(=O)C4CC4)cc3)n2)[nH]n1

>  <smiles_fragments_dummy>  (11) 
{'AP': 'Cc1cc(N)[nH]n1', 'SE': '[26*]c1cc(N2CC[NH+](C)CC2)nc(S[40*])n1', 'FP': 'O=CNc1ccccc1', 'GA': '[52*]C1CC1'}

>  <smiles_fragments>  (11) 
{'AP': '[22*]Nc1cc(C)n[nH]1', 'SE': 'C[NH+]1CCN(c2ccnc(S)n2)CC1', 'FP': '[39*]c1ccc(NC([54*])=O)cc1', 'GA': 'C1CC1'}

>  <BIOSOLVEIT.DOCKING_SCORE>  (11) 
1096.44

>  <filtered>  (11) 
0

$$$$
3amb_chainA_2
     RDKit          3D

 33 37  0  0  0  0  0  0  0  0999 V2000
  -31.4925   -9.5255   -9.1034 N   0  0  0  0  0  0  0  0  0  0  0  0
  -31.4408   -9.4881   -7.6695 C   0  0  0  0  0  0  0  0  0  0  0  0
  -32.3083  -10.1237   -6.8375 C   0  0  0  0  0  0  0  0  0  0  0  0
  -31.8591   -9.7963   -5.5185 C   0  0  0  0  0  0  0  0  0  0  0  0
  -30.8056   -9.0212   -5.6168 N   0  0  0  0  0  0  0  0  0  0  0  0
  -30.5008   -8.7985   -6.9261 N   0  0  0  0  0  0  0  0  0  0  0  0
  -32.4974  -10.2656   -4.2215 C   0  0  0  0  0  0  0  0  0  0  0  0
  -29.9475   -9.0029  -16.3272 N   0  0  0  0  0  0  0  0  0  0  0  0
  -28.7460   -9.6699  -15.7959 C   0  0  0  0  0  0  0  0  0  0  0  0
  -28.3421   -9.1858  -14.4104 C   0  0  0  0  0  0  0  0  0  0  0  0
  -29.5189   -9.0600  -13.5359 N   0  0  0  0  0  0  0  0  0  0  0  0
  -30.8664   -8.7074  -14.0145 C   0  0  0  0  0  0  0  0  0  0  0  0
  -31.1010   -9.2078  -15.4338 C   0  0  0  0  0  0  0  0  0  0  0  0
  -29.7119   -7.5781  -16.6129 C   0  0  0  0  0  0  0  0  0  0  0  0
  -29.3501   -9.3299  -12.1314 C   0  0  0  0  0  0  0  0  0  0  0  0
  -30.4688   -9.3008  -11.3041 C   0  0  0  0  0  0  0  0  0  0  0  0
  -30.3240   -9.5589   -9.9442 C   0  0  0  0  0  0  0  0  0  0  0  0
  -29.0914   -9.8307   -9.4779 N   0  0  0  0  0  0  0  0  0  0  0  0
  -28.0004   -9.8628  -10.2637 C   0  0  0  0  0  0  0  0  0  0  0  0
  -28.1574   -9.6108  -11.5756 N   0  0  0  0  0  0  0  0  0  0  0  0
  -26.4007  -10.2291   -9.5802 S   0  0  0  0  0  0  0  0  0  0  0  0
  -26.9954  -10.0699   -7.8971 C   0  0  0  0  0  0  0  0  0  0  0  0
  -27.5719  -11.1696   -7.2697 C   0  0  0  0  0  0  0  0  0  0  0  0
  -28.0387  -11.0596   -5.9637 C   0  0  0  0  0  0  0  0  0  0  0  0
  -27.9195   -9.8420   -5.3019 C   0  0  0  0  0  0  0  0  0  0  0  0
  -27.3434   -8.7404   -5.9262 C   0  0  0  0  0  0  0  0  0  0  0  0
  -26.8779   -8.8536   -7.2323 C   0  0  0  0  0  0  0  0  0  0  0  0
  -28.3966   -9.7144   -3.9540 N   0  0  0  0  0  0  0  0  0  0  0  0
  -27.5715   -9.9423   -2.7950 C   0  0  0  0  0  0  0  0  0  0  0  0
  -26.6223  -10.7692   -2.8579 O   0  0  0  0  0  0  0  0  0  0  0  0
  -27.8162   -9.2562   -1.4717 C   0  0  0  0  0  0  0  0  0  0  0  0
  -27.4103   -9.9406   -0.1996 C   0  0  0  0  0  0  0  0  0  0  0  0
  -26.6270   -8.7622   -0.6988 C   0  0  0  0  0  0  0  0  0  0  0  0
  1  2  1  0
  2  3  2  0
  2  6  1  0
  3  4  1  0
  4  5  2  0
  4  7  1  0
  5  6  1  0
  8  9  1  0
  8 13  1  0
  8 14  1  0
  9 10  1  0
 10 11  1  0
 11 12  1  0
 11 15  1  0
 12 13  1  0
 15 16  2  0
 15 20  1  0
 16 17  1  0
 17 18  2  0
 18 19  1  0
 19 20  2  0
 19 21  1  0
 22 23  2  0
 22 27  1  0
 23 24  1  0
 24 25  2  0
 25 26  1  0
 25 28  1  0
 26 27  2  0
 28 29  1  0
 29 30  2  0
 31 32  1  0
 31 33  1  0
 32 33  1  0
 17  1  1  0
 22 21  1  0
 31 29  1  0
M  CHG  1   8   1
M  END
>  <BIOSOLVEIT.HYDE_ESTIMATED_AFFINITY_LOWER_BOUNDARY [nM]>  (12) 
305622.557488

>  <BIOSOLVEIT.HYDE_ESTIMATED_AFFINITY_UPPER_BOUNDARY [nM]>  (12) 
30365408.069969

>  <BIOSOLVEIT.LOGP>  (12) 
2.08612

>  <BIOSOLVEIT.MOLECULAR_WEIGHT>  (12) 
465.602

>  <BIOSOLVEIT.TPSA>  (12) 
103.27

>  <fragment_ids>  (12) 
{'AP': 0, 'SE': 0, 'FP': 0, 'GA': 0}

>  <smiles_ligand>  (12) 
Cc1cc(Nc2cc(N3CC[NH+](C)CC3)nc(Sc3ccc(NC(=O)C4CC4)cc3)n2)[nH]n1

>  <smiles_fragments_dummy>  (12) 
{'AP': 'Cc1cc(N)[nH]n1', 'SE': '[26*]c1cc(N2CC[NH+](C)CC2)nc(S[40*])n1', 'FP': 'O=CNc1ccccc1', 'GA': '[52*]C1CC1'}

>  <smiles_fragments>  (12) 
{'AP': '[22*]Nc1cc(C)n[nH]1', 'SE': 'C[NH+]1CCN(c2ccnc(S)n2)CC1', 'FP': '[39*]c1ccc(NC([54*])=O)cc1', 'GA': 'C1CC1'}

>  <BIOSOLVEIT.DOCKING_SCORE>  (12) 
1707.34

>  <filtered>  (12) 
0

$$$$
3amb_chainA_3
     RDKit          3D

 33 37  0  0  0  0  0  0  0  0999 V2000
  -31.2734   -9.8961   -8.2107 N   0  0  0  0  0  0  0  0  0  0  0  0
  -31.2537  -10.1456   -6.7973 C   0  0  0  0  0  0  0  0  0  0  0  0
  -32.2439   -9.8088   -5.9286 C   0  0  0  0  0  0  0  0  0  0  0  0
  -31.7785  -10.2543   -4.6504 C   0  0  0  0  0  0  0  0  0  0  0  0
  -30.5972  -10.8028   -4.8044 N   0  0  0  0  0  0  0  0  0  0  0  0
  -30.2232  -10.7643   -6.1141 N   0  0  0  0  0  0  0  0  0  0  0  0
  -32.5265  -10.1129   -3.3350 C   0  0  0  0  0  0  0  0  0  0  0  0
  -29.7512   -8.5240  -15.2689 N   0  0  0  0  0  0  0  0  0  0  0  0
  -28.8102   -9.5850  -14.8695 C   0  0  0  0  0  0  0  0  0  0  0  0
  -28.1971   -9.3697  -13.4929 C   0  0  0  0  0  0  0  0  0  0  0  0
  -29.2192   -8.9384  -12.5261 N   0  0  0  0  0  0  0  0  0  0  0  0
  -30.3986   -8.1304  -12.8802 C   0  0  0  0  0  0  0  0  0  0  0  0
  -30.8591   -8.4133  -14.3043 C   0  0  0  0  0  0  0  0  0  0  0  0
  -29.0748   -7.2350  -15.4890 C   0  0  0  0  0  0  0  0  0  0  0  0
  -29.0751   -9.3589  -11.1563 C   0  0  0  0  0  0  0  0  0  0  0  0
  -30.2096   -9.4267  -10.3531 C   0  0  0  0  0  0  0  0  0  0  0  0
  -30.0888   -9.8309   -9.0269 C   0  0  0  0  0  0  0  0  0  0  0  0
  -28.8632  -10.1448   -8.5686 N   0  0  0  0  0  0  0  0  0  0  0  0
  -27.7571  -10.0847   -9.3313 C   0  0  0  0  0  0  0  0  0  0  0  0
  -27.8911   -9.6919  -10.6109 N   0  0  0  0  0  0  0  0  0  0  0  0
  -26.1680  -10.5141   -8.6603 S   0  0  0  0  0  0  0  0  0  0  0  0
  -26.6471  -10.0262   -7.0038 C   0  0  0  0  0  0  0  0  0  0  0  0
  -26.6932  -10.9843   -5.9962 C   0  0  0  0  0  0  0  0  0  0  0  0
  -27.0645  -10.6195   -4.7060 C   0  0  0  0  0  0  0  0  0  0  0  0
  -27.3855   -9.2918   -4.4432 C   0  0  0  0  0  0  0  0  0  0  0  0
  -27.3402   -8.3312   -5.4483 C   0  0  0  0  0  0  0  0  0  0  0  0
  -26.9688   -8.6993   -6.7374 C   0  0  0  0  0  0  0  0  0  0  0  0
  -27.7700   -8.9013   -3.1164 N   0  0  0  0  0  0  0  0  0  0  0  0
  -28.3368   -9.8117   -2.1540 C   0  0  0  0  0  0  0  0  0  0  0  0
  -29.0263  -10.7892   -2.5509 O   0  0  0  0  0  0  0  0  0  0  0  0
  -28.1761   -9.6271   -0.6634 C   0  0  0  0  0  0  0  0  0  0  0  0
  -27.4233  -10.6541    0.1302 C   0  0  0  0  0  0  0  0  0  0  0  0
  -26.8074   -9.3112   -0.1318 C   0  0  0  0  0  0  0  0  0  0  0  0
  1  2  1  0
  2  3  1  0
  2  6  2  0
  3  4  2  0
  4  5  1  0
  4  7  1  0
  5  6  1  0
  8  9  1  0
  8 13  1  0
  8 14  1  0
  9 10  1  0
 10 11  1  0
 11 12  1  0
 11 15  1  0
 12 13  1  0
 15 16  2  0
 15 20  1  0
 16 17  1  0
 17 18  2  0
 18 19  1  0
 19 20  2  0
 19 21  1  0
 22 23  2  0
 22 27  1  0
 23 24  1  0
 24 25  2  0
 25 26  1  0
 25 28  1  0
 26 27  2  0
 28 29  1  0
 29 30  2  0
 31 32  1  0
 31 33  1  0
 32 33  1  0
 17  1  1  0
 22 21  1  0
 31 29  1  0
M  CHG  1   8   1
M  END
>  <BIOSOLVEIT.HYDE_ESTIMATED_AFFINITY_LOWER_BOUNDARY [nM]>  (13) 
2810.840065

>  <BIOSOLVEIT.HYDE_ESTIMATED_AFFINITY_UPPER_BOUNDARY [nM]>  (13) 
279273.579428

>  <BIOSOLVEIT.LOGP>  (13) 
2.08612

>  <BIOSOLVEIT.MOLECULAR_WEIGHT>  (13) 
465.602

>  <BIOSOLVEIT.TPSA>  (13) 
103.27

>  <fragment_ids>  (13) 
{'AP': 0, 'SE': 0, 'FP': 0, 'GA': 0}

>  <smiles_ligand>  (13) 
Cc1cc(Nc2cc(N3CC[NH+](C)CC3)nc(Sc3ccc(NC(=O)C4CC4)cc3)n2)n[nH]1

>  <smiles_fragments_dummy>  (13) 
{'AP': 'Cc1cc(N)[nH]n1', 'SE': '[26*]c1cc(N2CC[NH+](C)CC2)nc(S[40*])n1', 'FP': 'O=CNc1ccccc1', 'GA': '[52*]C1CC1'}

>  <smiles_fragments>  (13) 
{'AP': '[22*]Nc1cc(C)n[nH]1', 'SE': 'C[NH+]1CCN(c2ccnc(S)n2)CC1', 'FP': '[39*]c1ccc(NC([54*])=O)cc1', 'GA': 'C1CC1'}

>  <BIOSOLVEIT.DOCKING_SCORE>  (13) 
2042.91

>  <filtered>  (13) 
0

$$$$
3amb_chainA_4
     RDKit          3D

 33 37  0  0  0  0  0  0  0  0999 V2000
  -30.8092   -9.3796   -9.5089 N   0  0  0  0  0  0  0  0  0  0  0  0
  -30.9407   -9.4350   -8.0806 C   0  0  0  0  0  0  0  0  0  0  0  0
  -31.9557  -10.0427   -7.4104 C   0  0  0  0  0  0  0  0  0  0  0  0
  -31.6568   -9.8370   -6.0258 C   0  0  0  0  0  0  0  0  0  0  0  0
  -30.5419   -9.1519   -5.9369 N   0  0  0  0  0  0  0  0  0  0  0  0
  -30.0538   -8.8765   -7.1789 N   0  0  0  0  0  0  0  0  0  0  0  0
  -32.4924  -10.3279   -4.8551 C   0  0  0  0  0  0  0  0  0  0  0  0
  -28.4120   -6.9643  -16.0439 N   0  0  0  0  0  0  0  0  0  0  0  0
  -27.3270   -6.6135  -15.1121 C   0  0  0  0  0  0  0  0  0  0  0  0
  -27.0625   -7.7200  -14.1020 C   0  0  0  0  0  0  0  0  0  0  0  0
  -28.3140   -8.2544  -13.5421 N   0  0  0  0  0  0  0  0  0  0  0  0
  -29.5678   -8.3151  -14.3106 C   0  0  0  0  0  0  0  0  0  0  0  0
  -29.6714   -7.1716  -15.3094 C   0  0  0  0  0  0  0  0  0  0  0  0
  -28.6156   -5.8000  -16.9179 C   0  0  0  0  0  0  0  0  0  0  0  0
  -28.3137   -8.7265  -12.1816 C   0  0  0  0  0  0  0  0  0  0  0  0
  -29.5267   -8.8269  -11.5068 C   0  0  0  0  0  0  0  0  0  0  0  0
  -29.5450   -9.2810  -10.1914 C   0  0  0  0  0  0  0  0  0  0  0  0
  -28.3732   -9.6099   -9.6175 N   0  0  0  0  0  0  0  0  0  0  0  0
  -27.1927   -9.5187  -10.2555 C   0  0  0  0  0  0  0  0  0  0  0  0
  -27.1924   -9.0777  -11.5263 N   0  0  0  0  0  0  0  0  0  0  0  0
  -25.6814   -9.9704   -9.4359 S   0  0  0  0  0  0  0  0  0  0  0  0
  -26.4529   -9.9298   -7.8189 C   0  0  0  0  0  0  0  0  0  0  0  0
  -27.0827  -11.0716   -7.3340 C   0  0  0  0  0  0  0  0  0  0  0  0
  -27.6867  -11.0536   -6.0808 C   0  0  0  0  0  0  0  0  0  0  0  0
  -27.6497   -9.8849   -5.3275 C   0  0  0  0  0  0  0  0  0  0  0  0
  -27.0207   -8.7414   -5.8093 C   0  0  0  0  0  0  0  0  0  0  0  0
  -26.4180   -8.7626   -7.0629 C   0  0  0  0  0  0  0  0  0  0  0  0
  -28.2686   -9.8523   -4.0327 N   0  0  0  0  0  0  0  0  0  0  0  0
  -27.5538  -10.0932   -2.8050 C   0  0  0  0  0  0  0  0  0  0  0  0
  -26.5555  -10.8626   -2.8052 O   0  0  0  0  0  0  0  0  0  0  0  0
  -27.9727   -9.4898   -1.4852 C   0  0  0  0  0  0  0  0  0  0  0  0
  -27.5570  -10.1535   -0.2054 C   0  0  0  0  0  0  0  0  0  0  0  0
  -26.9134   -8.8643   -0.6237 C   0  0  0  0  0  0  0  0  0  0  0  0
  1  2  1  0
  2  3  2  0
  2  6  1  0
  3  4  1  0
  4  5  2  0
  4  7  1  0
  5  6  1  0
  8  9  1  0
  8 13  1  0
  8 14  1  0
  9 10  1  0
 10 11  1  0
 11 12  1  0
 11 15  1  0
 12 13  1  0
 15 16  2  0
 15 20  1  0
 16 17  1  0
 17 18  2  0
 18 19  1  0
 19 20  2  0
 19 21  1  0
 22 23  2  0
 22 27  1  0
 23 24  1  0
 24 25  2  0
 25 26  1  0
 25 28  1  0
 26 27  2  0
 28 29  1  0
 29 30  2  0
 31 32  1  0
 31 33  1  0
 32 33  1  0
 17  1  1  0
 22 21  1  0
 31 29  1  0
M  CHG  1   8   1
M  END
>  <BIOSOLVEIT.HYDE_ESTIMATED_AFFINITY_LOWER_BOUNDARY [nM]>  (14) 
183699.750966

>  <BIOSOLVEIT.HYDE_ESTIMATED_AFFINITY_UPPER_BOUNDARY [nM]>  (14) 
18251656.377346

>  <BIOSOLVEIT.LOGP>  (14) 
2.08612

>  <BIOSOLVEIT.MOLECULAR_WEIGHT>  (14) 
465.602

>  <BIOSOLVEIT.TPSA>  (14) 
103.27

>  <fragment_ids>  (14) 
{'AP': 0, 'SE': 0, 'FP': 0, 'GA': 0}

>  <smiles_ligand>  (14) 
Cc1cc(Nc2cc(N3CC[NH+](C)CC3)nc(Sc3ccc(NC(=O)C4CC4)cc3)n2)[nH]n1

>  <smiles_fragments_dummy>  (14) 
{'AP': 'Cc1cc(N)[nH]n1', 'SE': '[26*]c1cc(N2CC[NH+](C)CC2)nc(S[40*])n1', 'FP': 'O=CNc1ccccc1', 'GA': '[52*]C1CC1'}

>  <smiles_fragments>  (14) 
{'AP': '[22*]Nc1cc(C)n[nH]1', 'SE': 'C[NH+]1CCN(c2ccnc(S)n2)CC1', 'FP': '[39*]c1ccc(NC([54*])=O)cc1', 'GA': 'C1CC1'}

>  <BIOSOLVEIT.DOCKING_SCORE>  (14) 
2269.42

>  <filtered>  (14) 
0

$$$$
3amb_chainA_5
     RDKit          3D

 33 37  0  0  0  0  0  0  0  0999 V2000
  -31.3823   -9.6661   -8.8310 N   0  0  0  0  0  0  0  0  0  0  0  0
  -31.3779   -9.9924   -7.4332 C   0  0  0  0  0  0  0  0  0  0  0  0
  -32.3277   -9.6132   -6.5373 C   0  0  0  0  0  0  0  0  0  0  0  0
  -31.8984  -10.1681   -5.2897 C   0  0  0  0  0  0  0  0  0  0  0  0
  -30.7738  -10.8139   -5.4852 N   0  0  0  0  0  0  0  0  0  0  0  0
  -30.4051  -10.7393   -6.7948 N   0  0  0  0  0  0  0  0  0  0  0  0
  -32.6227  -10.0297   -3.9607 C   0  0  0  0  0  0  0  0  0  0  0  0
  -29.8093   -8.1160  -15.8353 N   0  0  0  0  0  0  0  0  0  0  0  0
  -30.9221   -7.9894  -14.8792 C   0  0  0  0  0  0  0  0  0  0  0  0
  -30.4311   -7.7181  -13.4650 C   0  0  0  0  0  0  0  0  0  0  0  0
  -29.3019   -8.5907  -13.1059 N   0  0  0  0  0  0  0  0  0  0  0  0
  -28.3183   -9.0661  -14.0921 C   0  0  0  0  0  0  0  0  0  0  0  0
  -28.9438   -9.2491  -15.4673 C   0  0  0  0  0  0  0  0  0  0  0  0
  -30.4038   -8.4406  -17.1400 C   0  0  0  0  0  0  0  0  0  0  0  0
  -29.1612   -9.0055  -11.7340 C   0  0  0  0  0  0  0  0  0  0  0  0
  -30.3052   -9.1359  -10.9525 C   0  0  0  0  0  0  0  0  0  0  0  0
  -30.1878   -9.5355   -9.6246 C   0  0  0  0  0  0  0  0  0  0  0  0
  -28.9560   -9.7839   -9.1435 N   0  0  0  0  0  0  0  0  0  0  0  0
  -27.8406   -9.6627   -9.8852 C   0  0  0  0  0  0  0  0  0  0  0  0
  -27.9714   -9.2752  -11.1666 N   0  0  0  0  0  0  0  0  0  0  0  0
  -26.2435  -10.0072   -9.1846 S   0  0  0  0  0  0  0  0  0  0  0  0
  -26.8715   -9.9185   -7.5085 C   0  0  0  0  0  0  0  0  0  0  0  0
  -26.9093  -11.0719   -6.7315 C   0  0  0  0  0  0  0  0  0  0  0  0
  -27.3954  -11.0175   -5.4291 C   0  0  0  0  0  0  0  0  0  0  0  0
  -27.8384   -9.8006   -4.9215 C   0  0  0  0  0  0  0  0  0  0  0  0
  -27.8019   -8.6453   -5.6956 C   0  0  0  0  0  0  0  0  0  0  0  0
  -27.3155   -8.7031   -6.9977 C   0  0  0  0  0  0  0  0  0  0  0  0
  -28.3422   -9.7299   -3.5792 N   0  0  0  0  0  0  0  0  0  0  0  0
  -27.5261   -9.9508   -2.4124 C   0  0  0  0  0  0  0  0  0  0  0  0
  -26.5396  -10.7324   -2.4802 O   0  0  0  0  0  0  0  0  0  0  0  0
  -27.8227   -9.3114   -1.0765 C   0  0  0  0  0  0  0  0  0  0  0  0
  -27.8468  -10.1619    0.1594 C   0  0  0  0  0  0  0  0  0  0  0  0
  -26.7081   -9.2133   -0.0746 C   0  0  0  0  0  0  0  0  0  0  0  0
  1  2  1  0
  2  3  2  0
  2  6  1  0
  3  4  1  0
  4  5  2  0
  4  7  1  0
  5  6  1  0
  8  9  1  0
  8 13  1  0
  8 14  1  0
  9 10  1  0
 10 11  1  0
 11 12  1  0
 11 15  1  0
 12 13  1  0
 15 16  2  0
 15 20  1  0
 16 17  1  0
 17 18  2  0
 18 19  1  0
 19 20  2  0
 19 21  1  0
 22 23  2  0
 22 27  1  0
 23 24  1  0
 24 25  2  0
 25 26  1  0
 25 28  1  0
 26 27  2  0
 28 29  1  0
 29 30  2  0
 31 32  1  0
 31 33  1  0
 32 33  1  0
 17  1  1  0
 22 21  1  0
 31 29  1  0
M  CHG  1   8   1
M  END
>  <BIOSOLVEIT.HYDE_ESTIMATED_AFFINITY_LOWER_BOUNDARY [nM]>  (15) 
191031.688684

>  <BIOSOLVEIT.HYDE_ESTIMATED_AFFINITY_UPPER_BOUNDARY [nM]>  (15) 
18980127.739464

>  <BIOSOLVEIT.LOGP>  (15) 
2.08612

>  <BIOSOLVEIT.MOLECULAR_WEIGHT>  (15) 
465.602

>  <BIOSOLVEIT.TPSA>  (15) 
103.27

>  <fragment_ids>  (15) 
{'AP': 0, 'SE': 0, 'FP': 0, 'GA': 0}

>  <smiles_ligand>  (15) 
Cc1cc(Nc2cc(N3CC[NH+](C)CC3)nc(Sc3ccc(NC(=O)C4CC4)cc3)n2)[nH]n1

>  <smiles_fragments_dummy>  (15) 
{'AP': 'Cc1cc(N)[nH]n1', 'SE': '[26*]c1cc(N2CC[NH+](C)CC2)nc(S[40*])n1', 'FP': 'O=CNc1ccccc1', 'GA': '[52*]C1CC1'}

>  <smiles_fragments>  (15) 
{'AP': '[22*]Nc1cc(C)n[nH]1', 'SE': 'C[NH+]1CCN(c2ccnc(S)n2)CC1', 'FP': '[39*]c1ccc(NC([54*])=O)cc1', 'GA': 'C1CC1'}

>  <BIOSOLVEIT.DOCKING_SCORE>  (15) 
2566.25

>  <filtered>  (15) 
0

$$$$
3amb_chainA_6
     RDKit          3D

 33 37  0  0  0  0  0  0  0  0999 V2000
  -30.7989  -10.0312   -8.5272 N   0  0  0  0  0  0  0  0  0  0  0  0
  -30.9744  -10.2095   -7.1138 C   0  0  0  0  0  0  0  0  0  0  0  0
  -32.1059   -9.9119   -6.4212 C   0  0  0  0  0  0  0  0  0  0  0  0
  -31.8074  -10.2560   -5.0642 C   0  0  0  0  0  0  0  0  0  0  0  0
  -30.5797  -10.7143   -5.0104 N   0  0  0  0  0  0  0  0  0  0  0  0
  -30.0164  -10.7093   -6.2511 N   0  0  0  0  0  0  0  0  0  0  0  0
  -32.7533  -10.1118   -3.8834 C   0  0  0  0  0  0  0  0  0  0  0  0
  -28.5983   -7.3567  -14.9128 N   0  0  0  0  0  0  0  0  0  0  0  0
  -28.5224   -8.8182  -14.7430 C   0  0  0  0  0  0  0  0  0  0  0  0
  -27.7897   -9.2481  -13.4798 C   0  0  0  0  0  0  0  0  0  0  0  0
  -28.2040   -8.4291  -12.3296 N   0  0  0  0  0  0  0  0  0  0  0  0
  -28.6195   -7.0196  -12.4296 C   0  0  0  0  0  0  0  0  0  0  0  0
  -29.2836   -6.7294  -13.7693 C   0  0  0  0  0  0  0  0  0  0  0  0
  -27.2779   -6.7571  -15.1666 C   0  0  0  0  0  0  0  0  0  0  0  0
  -28.2365   -9.0524  -11.0318 C   0  0  0  0  0  0  0  0  0  0  0  0
  -29.4669   -9.2418  -10.4098 C   0  0  0  0  0  0  0  0  0  0  0  0
  -29.5170   -9.8423   -9.1554 C   0  0  0  0  0  0  0  0  0  0  0  0
  -28.3578  -10.2216   -8.5870 N   0  0  0  0  0  0  0  0  0  0  0  0
  -27.1608  -10.0459   -9.1744 C   0  0  0  0  0  0  0  0  0  0  0  0
  -27.1298   -9.4637  -10.3866 N   0  0  0  0  0  0  0  0  0  0  0  0
  -25.6676  -10.5713   -8.3655 S   0  0  0  0  0  0  0  0  0  0  0  0
  -26.2813  -10.0968   -6.7501 C   0  0  0  0  0  0  0  0  0  0  0  0
  -26.3805  -11.0569   -5.7482 C   0  0  0  0  0  0  0  0  0  0  0  0
  -26.8565  -10.7023   -4.4899 C   0  0  0  0  0  0  0  0  0  0  0  0
  -27.2275   -9.3829   -4.2528 C   0  0  0  0  0  0  0  0  0  0  0  0
  -27.1294   -8.4203   -5.2523 C   0  0  0  0  0  0  0  0  0  0  0  0
  -26.6535   -8.7781   -6.5096 C   0  0  0  0  0  0  0  0  0  0  0  0
  -27.7199   -9.0031   -2.9590 N   0  0  0  0  0  0  0  0  0  0  0  0
  -28.3921   -9.9134   -2.0670 C   0  0  0  0  0  0  0  0  0  0  0  0
  -29.0664  -10.8671   -2.5407 O   0  0  0  0  0  0  0  0  0  0  0  0
  -28.3613   -9.7556   -0.5650 C   0  0  0  0  0  0  0  0  0  0  0  0
  -27.4983  -10.6690    0.2551 C   0  0  0  0  0  0  0  0  0  0  0  0
  -27.1028   -9.2338    0.0671 C   0  0  0  0  0  0  0  0  0  0  0  0
  1  2  1  0
  2  3  1  0
  2  6  2  0
  3  4  2  0
  4  5  1  0
  4  7  1  0
  5  6  1  0
  8  9  1  0
  8 13  1  0
  8 14  1  0
  9 10  1  0
 10 11  1  0
 11 12  1  0
 11 15  1  0
 12 13  1  0
 15 16  2  0
 15 20  1  0
 16 17  1  0
 17 18  2  0
 18 19  1  0
 19 20  2  0
 19 21  1  0
 22 23  2  0
 22 27  1  0
 23 24  1  0
 24 25  2  0
 25 26  1  0
 25 28  1  0
 26 27  2  0
 28 29  1  0
 29 30  2  0
 31 32  1  0
 31 33  1  0
 32 33  1  0
 17  1  1  0
 22 21  1  0
 31 29  1  0
M  CHG  1   8   1
M  END
>  <BIOSOLVEIT.HYDE_ESTIMATED_AFFINITY_LOWER_BOUNDARY [nM]>  (16) 
6873.444258

>  <BIOSOLVEIT.HYDE_ESTIMATED_AFFINITY_UPPER_BOUNDARY [nM]>  (16) 
682917.326086

>  <BIOSOLVEIT.LOGP>  (16) 
2.08612

>  <BIOSOLVEIT.MOLECULAR_WEIGHT>  (16) 
465.602

>  <BIOSOLVEIT.TPSA>  (16) 
103.27

>  <fragment_ids>  (16) 
{'AP': 0, 'SE': 0, 'FP': 0, 'GA': 0}

>  <smiles_ligand>  (16) 
Cc1cc(Nc2cc(N3CC[NH+](C)CC3)nc(Sc3ccc(NC(=O)C4CC4)cc3)n2)n[nH]1

>  <smiles_fragments_dummy>  (16) 
{'AP': 'Cc1cc(N)[nH]n1', 'SE': '[26*]c1cc(N2CC[NH+](C)CC2)nc(S[40*])n1', 'FP': 'O=CNc1ccccc1', 'GA': '[52*]C1CC1'}

>  <smiles_fragments>  (16) 
{'AP': '[22*]Nc1cc(C)n[nH]1', 'SE': 'C[NH+]1CCN(c2ccnc(S)n2)CC1', 'FP': '[39*]c1ccc(NC([54*])=O)cc1', 'GA': 'C1CC1'}

>  <BIOSOLVEIT.DOCKING_SCORE>  (16) 
2653.82

>  <filtered>  (16) 
0

$$$$
3amb_chainA_7
     RDKit          3D

 33 37  0  0  0  0  0  0  0  0999 V2000
  -31.5334   -9.6380   -9.4869 N   0  0  0  0  0  0  0  0  0  0  0  0
  -31.6020   -9.7036   -8.0546 C   0  0  0  0  0  0  0  0  0  0  0  0
  -30.8149  -10.4844   -7.2676 C   0  0  0  0  0  0  0  0  0  0  0  0
  -31.2471  -10.2121   -5.9305 C   0  0  0  0  0  0  0  0  0  0  0  0
  -32.2197   -9.3334   -5.9771 N   0  0  0  0  0  0  0  0  0  0  0  0
  -32.4805   -8.9821   -7.2675 N   0  0  0  0  0  0  0  0  0  0  0  0
  -30.6767  -10.8381   -4.6685 C   0  0  0  0  0  0  0  0  0  0  0  0
  -29.7196   -6.8040  -15.9730 N   0  0  0  0  0  0  0  0  0  0  0  0
  -29.1561   -8.1609  -15.8615 C   0  0  0  0  0  0  0  0  0  0  0  0
  -28.4471   -8.4199  -14.5396 C   0  0  0  0  0  0  0  0  0  0  0  0
  -29.2313   -7.8914  -13.4122 N   0  0  0  0  0  0  0  0  0  0  0  0
  -30.1000   -6.7051  -13.4981 C   0  0  0  0  0  0  0  0  0  0  0  0
  -30.6889   -6.5469  -14.8938 C   0  0  0  0  0  0  0  0  0  0  0  0
  -28.6727   -5.7709  -16.0377 C   0  0  0  0  0  0  0  0  0  0  0  0
  -29.1716   -8.5955  -12.1574 C   0  0  0  0  0  0  0  0  0  0  0  0
  -30.3469   -8.7788  -11.4351 C   0  0  0  0  0  0  0  0  0  0  0  0
  -30.3075   -9.4568  -10.2203 C   0  0  0  0  0  0  0  0  0  0  0  0
  -29.1185   -9.9146   -9.7877 N   0  0  0  0  0  0  0  0  0  0  0  0
  -27.9738   -9.7459  -10.4733 C   0  0  0  0  0  0  0  0  0  0  0  0
  -28.0290   -9.0882  -11.6455 N   0  0  0  0  0  0  0  0  0  0  0  0
  -26.4367  -10.3773   -9.8420 S   0  0  0  0  0  0  0  0  0  0  0  0
  -26.8857  -10.0002   -8.1485 C   0  0  0  0  0  0  0  0  0  0  0  0
  -27.0967  -11.0412   -7.2501 C   0  0  0  0  0  0  0  0  0  0  0  0
  -27.4469  -10.7627   -5.9327 C   0  0  0  0  0  0  0  0  0  0  0  0
  -27.5804   -9.4370   -5.5330 C   0  0  0  0  0  0  0  0  0  0  0  0
  -27.3699   -8.3937   -6.4288 C   0  0  0  0  0  0  0  0  0  0  0  0
  -27.0203   -8.6756   -7.7454 C   0  0  0  0  0  0  0  0  0  0  0  0
  -27.9409   -9.1350   -4.1766 N   0  0  0  0  0  0  0  0  0  0  0  0
  -27.0925   -9.4206   -3.0474 C   0  0  0  0  0  0  0  0  0  0  0  0
  -26.3022  -10.4013   -3.0933 O   0  0  0  0  0  0  0  0  0  0  0  0
  -27.1320   -8.6117   -1.7724 C   0  0  0  0  0  0  0  0  0  0  0  0
  -26.7402   -9.2582   -0.4763 C   0  0  0  0  0  0  0  0  0  0  0  0
  -25.8278   -8.2550   -1.1186 C   0  0  0  0  0  0  0  0  0  0  0  0
  1  2  1  0
  2  3  2  0
  2  6  1  0
  3  4  1  0
  4  5  2  0
  4  7  1  0
  5  6  1  0
  8  9  1  0
  8 13  1  0
  8 14  1  0
  9 10  1  0
 10 11  1  0
 11 12  1  0
 11 15  1  0
 12 13  1  0
 15 16  2  0
 15 20  1  0
 16 17  1  0
 17 18  2  0
 18 19  1  0
 19 20  2  0
 19 21  1  0
 22 23  2  0
 22 27  1  0
 23 24  1  0
 24 25  2  0
 25 26  1  0
 25 28  1  0
 26 27  2  0
 28 29  1  0
 29 30  2  0
 31 32  1  0
 31 33  1  0
 32 33  1  0
 17  1  1  0
 22 21  1  0
 31 29  1  0
M  CHG  1   8   1
M  END
>  <BIOSOLVEIT.HYDE_ESTIMATED_AFFINITY_LOWER_BOUNDARY [nM]>  (17) 
616511.116921

>  <BIOSOLVEIT.HYDE_ESTIMATED_AFFINITY_UPPER_BOUNDARY [nM]>  (17) 
61254024.568316

>  <BIOSOLVEIT.LOGP>  (17) 
2.08612

>  <BIOSOLVEIT.MOLECULAR_WEIGHT>  (17) 
465.602

>  <BIOSOLVEIT.TPSA>  (17) 
103.27

>  <fragment_ids>  (17) 
{'AP': 0, 'SE': 0, 'FP': 0, 'GA': 0}

>  <smiles_ligand>  (17) 
Cc1cc(Nc2cc(N3CC[NH+](C)CC3)nc(Sc3ccc(NC(=O)C4CC4)cc3)n2)[nH]n1

>  <smiles_fragments_dummy>  (17) 
{'AP': 'Cc1cc(N)[nH]n1', 'SE': '[26*]c1cc(N2CC[NH+](C)CC2)nc(S[40*])n1', 'FP': 'O=CNc1ccccc1', 'GA': '[52*]C1CC1'}

>  <smiles_fragments>  (17) 
{'AP': '[22*]Nc1cc(C)n[nH]1', 'SE': 'C[NH+]1CCN(c2ccnc(S)n2)CC1', 'FP': '[39*]c1ccc(NC([54*])=O)cc1', 'GA': 'C1CC1'}

>  <BIOSOLVEIT.DOCKING_SCORE>  (17) 
2823.69

>  <filtered>  (17) 
0

$$$$
3amb_chainA_8
     RDKit          3D

 33 37  0  0  0  0  0  0  0  0999 V2000
  -30.6781  -10.3879   -7.9788 N   0  0  0  0  0  0  0  0  0  0  0  0
  -30.6593  -10.2102   -6.5546 C   0  0  0  0  0  0  0  0  0  0  0  0
  -29.7178   -9.5134   -5.8645 C   0  0  0  0  0  0  0  0  0  0  0  0
  -30.1169   -9.6147   -4.4936 C   0  0  0  0  0  0  0  0  0  0  0  0
  -31.2147  -10.3298   -4.4304 N   0  0  0  0  0  0  0  0  0  0  0  0
  -31.5968  -10.7239   -5.6775 N   0  0  0  0  0  0  0  0  0  0  0  0
  -29.3894   -8.9996   -3.3096 C   0  0  0  0  0  0  0  0  0  0  0  0
  -30.2380   -7.1362  -14.7170 N   0  0  0  0  0  0  0  0  0  0  0  0
  -28.8670   -6.9649  -14.2053 C   0  0  0  0  0  0  0  0  0  0  0  0
  -28.7779   -6.9726  -12.6856 C   0  0  0  0  0  0  0  0  0  0  0  0
  -29.6095   -8.0457  -12.1177 N   0  0  0  0  0  0  0  0  0  0  0  0
  -30.8587   -8.5302  -12.7292 C   0  0  0  0  0  0  0  0  0  0  0  0
  -30.8201   -8.4052  -14.2467 C   0  0  0  0  0  0  0  0  0  0  0  0
  -31.0962   -5.9815  -14.4047 C   0  0  0  0  0  0  0  0  0  0  0  0
  -29.1579   -8.6832  -10.9080 C   0  0  0  0  0  0  0  0  0  0  0  0
  -30.1041   -9.2189  -10.0393 C   0  0  0  0  0  0  0  0  0  0  0  0
  -29.6854   -9.8384   -8.8655 C   0  0  0  0  0  0  0  0  0  0  0  0
  -28.3646   -9.8959   -8.6148 N   0  0  0  0  0  0  0  0  0  0  0  0
  -27.4377   -9.3834   -9.4436 C   0  0  0  0  0  0  0  0  0  0  0  0
  -27.8588   -8.7877  -10.5737 N   0  0  0  0  0  0  0  0  0  0  0  0
  -25.7077   -9.4947   -9.0497 S   0  0  0  0  0  0  0  0  0  0  0  0
  -26.0430   -9.9578   -7.3511 C   0  0  0  0  0  0  0  0  0  0  0  0
  -26.2982  -11.2905   -7.0444 C   0  0  0  0  0  0  0  0  0  0  0  0
  -26.5611  -11.6638   -5.7302 C   0  0  0  0  0  0  0  0  0  0  0  0
  -26.5635  -10.6899   -4.7369 C   0  0  0  0  0  0  0  0  0  0  0  0
  -26.3085   -9.3564   -5.0401 C   0  0  0  0  0  0  0  0  0  0  0  0
  -26.0464   -8.9864   -6.3553 C   0  0  0  0  0  0  0  0  0  0  0  0
  -26.8329  -11.0609   -3.3766 N   0  0  0  0  0  0  0  0  0  0  0  0
  -25.8706  -10.9285   -2.3123 C   0  0  0  0  0  0  0  0  0  0  0  0
  -24.6404  -11.0261   -2.5681 O   0  0  0  0  0  0  0  0  0  0  0  0
  -26.2718  -10.7140   -0.8719 C   0  0  0  0  0  0  0  0  0  0  0  0
  -25.3718   -9.9277    0.0353 C   0  0  0  0  0  0  0  0  0  0  0  0
  -26.6614   -9.3283   -0.4435 C   0  0  0  0  0  0  0  0  0  0  0  0
  1  2  1  0
  2  3  2  0
  2  6  1  0
  3  4  1  0
  4  5  2  0
  4  7  1  0
  5  6  1  0
  8  9  1  0
  8 13  1  0
  8 14  1  0
  9 10  1  0
 10 11  1  0
 11 12  1  0
 11 15  1  0
 12 13  1  0
 15 16  2  0
 15 20  1  0
 16 17  1  0
 17 18  2  0
 18 19  1  0
 19 20  2  0
 19 21  1  0
 22 23  2  0
 22 27  1  0
 23 24  1  0
 24 25  2  0
 25 26  1  0
 25 28  1  0
 26 27  2  0
 28 29  1  0
 29 30  2  0
 31 32  1  0
 31 33  1  0
 32 33  1  0
 17  1  1  0
 22 21  1  0
 31 29  1  0
M  CHG  1   8   1
M  END
>  <BIOSOLVEIT.HYDE_ESTIMATED_AFFINITY_LOWER_BOUNDARY [nM]>  (18) 
5188879.350912

>  <BIOSOLVEIT.HYDE_ESTIMATED_AFFINITY_UPPER_BOUNDARY [nM]>  (18) 
515545842.595767

>  <BIOSOLVEIT.LOGP>  (18) 
2.08612

>  <BIOSOLVEIT.MOLECULAR_WEIGHT>  (18) 
465.602

>  <BIOSOLVEIT.TPSA>  (18) 
103.27

>  <fragment_ids>  (18) 
{'AP': 0, 'SE': 0, 'FP': 0, 'GA': 0}

>  <smiles_ligand>  (18) 
Cc1cc(Nc2cc(N3CC[NH+](C)CC3)nc(Sc3ccc(NC(=O)C4CC4)cc3)n2)[nH]n1

>  <smiles_fragments_dummy>  (18) 
{'AP': 'Cc1cc(N)[nH]n1', 'SE': '[26*]c1cc(N2CC[NH+](C)CC2)nc(S[40*])n1', 'FP': 'O=CNc1ccccc1', 'GA': '[52*]C1CC1'}

>  <smiles_fragments>  (18) 
{'AP': '[22*]Nc1cc(C)n[nH]1', 'SE': 'C[NH+]1CCN(c2ccnc(S)n2)CC1', 'FP': '[39*]c1ccc(NC([54*])=O)cc1', 'GA': 'C1CC1'}

>  <BIOSOLVEIT.DOCKING_SCORE>  (18) 
3137.18

>  <filtered>  (18) 
0

$$$$
3amb_chainA_9
     RDKit          3D

 33 37  0  0  0  0  0  0  0  0999 V2000
  -31.6964   -9.6226   -9.3773 N   0  0  0  0  0  0  0  0  0  0  0  0
  -31.6957   -9.6974   -7.9438 C   0  0  0  0  0  0  0  0  0  0  0  0
  -30.8861  -10.4987   -7.2015 C   0  0  0  0  0  0  0  0  0  0  0  0
  -31.2466  -10.2280   -5.8430 C   0  0  0  0  0  0  0  0  0  0  0  0
  -32.2032   -9.3306   -5.8360 N   0  0  0  0  0  0  0  0  0  0  0  0
  -32.5202   -8.9650   -7.1097 N   0  0  0  0  0  0  0  0  0  0  0  0
  -30.6270  -10.8739   -4.6147 C   0  0  0  0  0  0  0  0  0  0  0  0
  -29.4329   -6.7290  -15.9261 N   0  0  0  0  0  0  0  0  0  0  0  0
  -28.3719   -7.7066  -15.6319 C   0  0  0  0  0  0  0  0  0  0  0  0
  -28.8278   -8.7601  -14.6333 C   0  0  0  0  0  0  0  0  0  0  0  0
  -29.5519   -8.1586  -13.5023 N   0  0  0  0  0  0  0  0  0  0  0  0
  -30.3721   -6.9441  -13.6378 C   0  0  0  0  0  0  0  0  0  0  0  0
  -29.8190   -6.0073  -14.7018 C   0  0  0  0  0  0  0  0  0  0  0  0
  -28.8541   -5.7350  -16.8415 C   0  0  0  0  0  0  0  0  0  0  0  0
  -29.4432   -8.7782  -12.2069 C   0  0  0  0  0  0  0  0  0  0  0  0
  -30.5882   -8.9040  -11.4258 C   0  0  0  0  0  0  0  0  0  0  0  0
  -30.5013   -9.5000  -10.1712 C   0  0  0  0  0  0  0  0  0  0  0  0
  -29.2975   -9.9371   -9.7586 N   0  0  0  0  0  0  0  0  0  0  0  0
  -28.1817   -9.8232  -10.5007 C   0  0  0  0  0  0  0  0  0  0  0  0
  -28.2826   -9.2445  -11.7109 N   0  0  0  0  0  0  0  0  0  0  0  0
  -26.6227  -10.4231   -9.8928 S   0  0  0  0  0  0  0  0  0  0  0  0
  -27.0330  -10.0072   -8.1986 C   0  0  0  0  0  0  0  0  0  0  0  0
  -27.1773  -11.0251   -7.2614 C   0  0  0  0  0  0  0  0  0  0  0  0
  -27.4968  -10.7165   -5.9430 C   0  0  0  0  0  0  0  0  0  0  0  0
  -27.6671   -9.3841   -5.5812 C   0  0  0  0  0  0  0  0  0  0  0  0
  -27.5233   -8.3638   -6.5158 C   0  0  0  0  0  0  0  0  0  0  0  0
  -27.2042   -8.6758   -7.8334 C   0  0  0  0  0  0  0  0  0  0  0  0
  -27.9967   -9.0512   -4.2243 N   0  0  0  0  0  0  0  0  0  0  0  0
  -27.1318   -9.3305   -3.1060 C   0  0  0  0  0  0  0  0  0  0  0  0
  -26.3592  -10.3254   -3.1483 O   0  0  0  0  0  0  0  0  0  0  0  0
  -27.1334   -8.4979   -1.8457 C   0  0  0  0  0  0  0  0  0  0  0  0
  -26.8013   -9.1452   -0.5335 C   0  0  0  0  0  0  0  0  0  0  0  0
  -25.8166   -8.2162   -1.1807 C   0  0  0  0  0  0  0  0  0  0  0  0
  1  2  1  0
  2  3  2  0
  2  6  1  0
  3  4  1  0
  4  5  2  0
  4  7  1  0
  5  6  1  0
  8  9  1  0
  8 13  1  0
  8 14  1  0
  9 10  1  0
 10 11  1  0
 11 12  1  0
 11 15  1  0
 12 13  1  0
 15 16  2  0
 15 20  1  0
 16 17  1  0
 17 18  2  0
 18 19  1  0
 19 20  2  0
 19 21  1  0
 22 23  2  0
 22 27  1  0
 23 24  1  0
 24 25  2  0
 25 26  1  0
 25 28  1  0
 26 27  2  0
 28 29  1  0
 29 30  2  0
 31 32  1  0
 31 33  1  0
 32 33  1  0
 17  1  1  0
 22 21  1  0
 31 29  1  0
M  CHG  1   8   1
M  END
>  <BIOSOLVEIT.HYDE_ESTIMATED_AFFINITY_LOWER_BOUNDARY [nM]>  (19) 
2074154.557881

>  <BIOSOLVEIT.HYDE_ESTIMATED_AFFINITY_UPPER_BOUNDARY [nM]>  (19) 
206079518.697733

>  <BIOSOLVEIT.LOGP>  (19) 
2.08612

>  <BIOSOLVEIT.MOLECULAR_WEIGHT>  (19) 
465.602

>  <BIOSOLVEIT.TPSA>  (19) 
103.27

>  <fragment_ids>  (19) 
{'AP': 0, 'SE': 0, 'FP': 0, 'GA': 0}

>  <smiles_ligand>  (19) 
Cc1cc(Nc2cc(N3CC[NH+](C)CC3)nc(Sc3ccc(NC(=O)C4CC4)cc3)n2)[nH]n1

>  <smiles_fragments_dummy>  (19) 
{'AP': 'Cc1cc(N)[nH]n1', 'SE': '[26*]c1cc(N2CC[NH+](C)CC2)nc(S[40*])n1', 'FP': 'O=CNc1ccccc1', 'GA': '[52*]C1CC1'}

>  <smiles_fragments>  (19) 
{'AP': '[22*]Nc1cc(C)n[nH]1', 'SE': 'C[NH+]1CCN(c2ccnc(S)n2)CC1', 'FP': '[39*]c1ccc(NC([54*])=O)cc1', 'GA': 'C1CC1'}

>  <BIOSOLVEIT.DOCKING_SCORE>  (19) 
3641.06

>  <filtered>  (19) 
0

$$$$
