3amb_chainA_1
     RDKit          3D

 33 37  0  0  0  0  0  0  0  0999 V2000
  -30.1268  -10.3813   -7.4903 N   0  0  0  0  0  0  0  0  0  0  0  0
  -29.9925  -10.0702   -6.0955 C   0  0  0  0  0  0  0  0  0  0  0  0
  -30.6714  -10.6803   -5.0879 C   0  0  0  0  0  0  0  0  0  0  0  0
  -30.2090  -10.0414   -3.8935 C   0  0  0  0  0  0  0  0  0  0  0  0
  -29.3272   -9.1281   -4.2234 N   0  0  0  0  0  0  0  0  0  0  0  0
  -29.1528   -9.1029   -5.5745 N   0  0  0  0  0  0  0  0  0  0  0  0
  -30.6650  -10.3647   -2.4803 C   0  0  0  0  0  0  0  0  0  0  0  0
  -28.9264  -10.6670  -14.8757 N   0  0  0  0  0  0  0  0  0  0  0  0
  -29.5141  -11.6640  -13.9654 C   0  0  0  0  0  0  0  0  0  0  0  0
  -29.7331  -11.1021  -12.5686 C   0  0  0  0  0  0  0  0  0  0  0  0
  -28.5656  -10.3375  -12.1018 N   0  0  0  0  0  0  0  0  0  0  0  0
  -27.6928   -9.5813  -13.0144 C   0  0  0  0  0  0  0  0  0  0  0  0
  -27.6059  -10.2390  -14.3838 C   0  0  0  0  0  0  0  0  0  0  0  0
  -28.7029  -11.3437  -16.1614 C   0  0  0  0  0  0  0  0  0  0  0  0
  -28.2597  -10.3396  -10.7010 C   0  0  0  0  0  0  0  0  0  0  0  0
  -29.3082  -10.3586   -9.7861 C   0  0  0  0  0  0  0  0  0  0  0  0
  -29.0295  -10.3605   -8.4226 C   0  0  0  0  0  0  0  0  0  0  0  0
  -27.7400  -10.3446   -8.0386 N   0  0  0  0  0  0  0  0  0  0  0  0
  -26.7155  -10.3261   -8.9097 C   0  0  0  0  0  0  0  0  0  0  0  0
  -27.0018  -10.3242  -10.2241 N   0  0  0  0  0  0  0  0  0  0  0  0
  -25.0343  -10.3056   -8.3323 S   0  0  0  0  0  0  0  0  0  0  0  0
  -25.5409  -10.3039   -6.6134 C   0  0  0  0  0  0  0  0  0  0  0  0
  -25.9274  -11.4985   -6.0142 C   0  0  0  0  0  0  0  0  0  0  0  0
  -26.3242  -11.5113   -4.6808 C   0  0  0  0  0  0  0  0  0  0  0  0
  -26.3269  -10.3197   -3.9633 C   0  0  0  0  0  0  0  0  0  0  0  0
  -25.9407   -9.1235   -4.5591 C   0  0  0  0  0  0  0  0  0  0  0  0
  -25.5450   -9.1139   -5.8927 C   0  0  0  0  0  0  0  0  0  0  0  0
  -26.7335  -10.3184   -2.5865 N   0  0  0  0  0  0  0  0  0  0  0  0
  -26.0530   -9.5724   -1.5585 C   0  0  0  0  0  0  0  0  0  0  0  0
  -24.8154   -9.3563   -1.6604 O   0  0  0  0  0  0  0  0  0  0  0  0
  -26.7540   -9.0610   -0.3222 C   0  0  0  0  0  0  0  0  0  0  0  0
  -28.1242   -9.5720    0.0135 C   0  0  0  0  0  0  0  0  0  0  0  0
  -26.9421  -10.0075    0.8287 C   0  0  0  0  0  0  0  0  0  0  0  0
  1  2  1  0
  2  3  2  0
  2  6  1  0
  3  4  1  0
  4  5  2  0
  4  7  1  0
  5  6  1  0
  8  9  1  0
  8 13  1  0
  8 14  1  0
  9 10  1  0
 10 11  1  0
 11 12  1  0
 11 15  1  0
 12 13  1  0
 15 16  2  0
 15 20  1  0
 16 17  1  0
 17 18  2  0
 18 19  1  0
 19 20  2  0
 19 21  1  0
 22 23  2  0
 22 27  1  0
 23 24  1  0
 24 25  2  0
 25 26  1  0
 25 28  1  0
 26 27  2  0
 28 29  1  0
 29 30  2  0
 31 32  1  0
 31 33  1  0
 32 33  1  0
 17  1  1  0
 22 21  1  0
 31 29  1  0
M  CHG  1   8   1
M  END
>  <BIOSOLVEIT.HYDE_ESTIMATED_AFFINITY_LOWER_BOUNDARY [nM]>  (1) 
1867.793444

>  <BIOSOLVEIT.HYDE_ESTIMATED_AFFINITY_UPPER_BOUNDARY [nM]>  (1) 
185576.321962

>  <BIOSOLVEIT.LOGP>  (1) 
2.08612

>  <BIOSOLVEIT.MOLECULAR_WEIGHT>  (1) 
465.602

>  <BIOSOLVEIT.TPSA>  (1) 
103.27

>  <fragment_ids>  (1) 
{'AP': 0, 'SE': 0, 'FP': 0, 'GA': 0}

>  <smiles_ligand>  (1) 
Cc1cc(Nc2cc(N3CC[NH+](C)CC3)nc(Sc3ccc(NC(=O)C4CC4)cc3)n2)[nH]n1

>  <smiles_fragments_dummy>  (1) 
{'AP': 'Cc1cc(N)[nH]n1', 'SE': '[26*]c1cc(N2CC[NH+](C)CC2)nc(S[40*])n1', 'FP': 'O=CNc1ccccc1', 'GA': '[52*]C1CC1'}

>  <smiles_fragments>  (1) 
{'AP': '[22*]Nc1cc(C)n[nH]1', 'SE': 'C[NH+]1CCN(c2ccnc(S)n2)CC1', 'FP': '[39*]c1ccc(NC([54*])=O)cc1', 'GA': 'C1CC1'}

>  <BIOSOLVEIT.DOCKING_SCORE>  (1) 
8872.27

>  <filtered>  (1) 
0

$$$$
3amb_chainA_2
     RDKit          3D

 33 37  0  0  0  0  0  0  0  0999 V2000
  -30.7551   -9.8960   -7.0046 N   0  0  0  0  0  0  0  0  0  0  0  0
  -30.2544   -9.7793   -5.6645 C   0  0  0  0  0  0  0  0  0  0  0  0
  -30.7061  -10.4870   -4.5950 C   0  0  0  0  0  0  0  0  0  0  0  0
  -29.9132  -10.0337   -3.4929 C   0  0  0  0  0  0  0  0  0  0  0  0
  -29.0739   -9.1248   -3.9287 N   0  0  0  0  0  0  0  0  0  0  0  0
  -29.2398   -8.9282   -5.2667 N   0  0  0  0  0  0  0  0  0  0  0  0
  -30.0268  -10.5213   -2.0580 C   0  0  0  0  0  0  0  0  0  0  0  0
  -31.5835  -11.2422  -14.2492 N   0  0  0  0  0  0  0  0  0  0  0  0
  -32.3338  -11.4477  -12.9988 C   0  0  0  0  0  0  0  0  0  0  0  0
  -31.8175  -10.5653  -11.8721 C   0  0  0  0  0  0  0  0  0  0  0  0
  -30.3474  -10.5696  -11.8093 N   0  0  0  0  0  0  0  0  0  0  0  0
  -29.5002  -10.7200  -13.0033 C   0  0  0  0  0  0  0  0  0  0  0  0
  -30.1653  -11.5909  -14.0592 C   0  0  0  0  0  0  0  0  0  0  0  0
  -32.1269  -12.1901  -15.2325 C   0  0  0  0  0  0  0  0  0  0  0  0
  -29.7151  -10.4333  -10.5297 C   0  0  0  0  0  0  0  0  0  0  0  0
  -30.5120  -10.2346   -9.4062 C   0  0  0  0  0  0  0  0  0  0  0  0
  -29.9150  -10.0999   -8.1562 C   0  0  0  0  0  0  0  0  0  0  0  0
  -28.5732  -10.1689   -8.0833 N   0  0  0  0  0  0  0  0  0  0  0  0
  -27.7890  -10.3602   -9.1590 C   0  0  0  0  0  0  0  0  0  0  0  0
  -28.3816  -10.4883  -10.3598 N   0  0  0  0  0  0  0  0  0  0  0  0
  -26.0212  -10.4410   -8.9900 S   0  0  0  0  0  0  0  0  0  0  0  0
  -26.1055  -10.2946   -7.2059 C   0  0  0  0  0  0  0  0  0  0  0  0
  -26.4507  -11.4069   -6.4450 C   0  0  0  0  0  0  0  0  0  0  0  0
  -26.5210  -11.3069   -5.0591 C   0  0  0  0  0  0  0  0  0  0  0  0
  -26.2418  -10.0865   -4.4529 C   0  0  0  0  0  0  0  0  0  0  0  0
  -25.8962   -8.9723   -5.2107 C   0  0  0  0  0  0  0  0  0  0  0  0
  -25.8271   -9.0755   -6.5963 C   0  0  0  0  0  0  0  0  0  0  0  0
  -26.3102   -9.9691   -3.0238 N   0  0  0  0  0  0  0  0  0  0  0  0
  -25.2622  -10.4126   -2.1398 C   0  0  0  0  0  0  0  0  0  0  0  0
  -24.5331  -11.3846   -2.4752 O   0  0  0  0  0  0  0  0  0  0  0  0
  -25.0146   -9.7848   -0.7886 C   0  0  0  0  0  0  0  0  0  0  0  0
  -25.7924  -10.2644    0.4015 C   0  0  0  0  0  0  0  0  0  0  0  0
  -24.3397  -10.6146    0.2657 C   0  0  0  0  0  0  0  0  0  0  0  0
  1  2  1  0
  2  3  2  0
  2  6  1  0
  3  4  1  0
  4  5  2  0
  4  7  1  0
  5  6  1  0
  8  9  1  0
  8 13  1  0
  8 14  1  0
  9 10  1  0
 10 11  1  0
 11 12  1  0
 11 15  1  0
 12 13  1  0
 15 16  2  0
 15 20  1  0
 16 17  1  0
 17 18  2  0
 18 19  1  0
 19 20  2  0
 19 21  1  0
 22 23  2  0
 22 27  1  0
 23 24  1  0
 24 25  2  0
 25 26  1  0
 25 28  1  0
 26 27  2  0
 28 29  1  0
 29 30  2  0
 31 32  1  0
 31 33  1  0
 32 33  1  0
 17  1  1  0
 22 21  1  0
 31 29  1  0
M  CHG  1   8   1
M  END
>  <BIOSOLVEIT.HYDE_ESTIMATED_AFFINITY_LOWER_BOUNDARY [nM]>  (2) 
6373.136948

>  <BIOSOLVEIT.HYDE_ESTIMATED_AFFINITY_UPPER_BOUNDARY [nM]>  (2) 
633208.836708

>  <BIOSOLVEIT.LOGP>  (2) 
2.08612

>  <BIOSOLVEIT.MOLECULAR_WEIGHT>  (2) 
465.602

>  <BIOSOLVEIT.TPSA>  (2) 
103.27

>  <fragment_ids>  (2) 
{'AP': 0, 'SE': 0, 'FP': 0, 'GA': 0}

>  <smiles_ligand>  (2) 
Cc1cc(Nc2cc(N3CC[NH+](C)CC3)nc(Sc3ccc(NC(=O)C4CC4)cc3)n2)[nH]n1

>  <smiles_fragments_dummy>  (2) 
{'AP': 'Cc1cc(N)[nH]n1', 'SE': '[26*]c1cc(N2CC[NH+](C)CC2)nc(S[40*])n1', 'FP': 'O=CNc1ccccc1', 'GA': '[52*]C1CC1'}

>  <smiles_fragments>  (2) 
{'AP': '[22*]Nc1cc(C)n[nH]1', 'SE': 'C[NH+]1CCN(c2ccnc(S)n2)CC1', 'FP': '[39*]c1ccc(NC([54*])=O)cc1', 'GA': 'C1CC1'}

>  <BIOSOLVEIT.DOCKING_SCORE>  (2) 
10934.82

>  <filtered>  (2) 
0

$$$$
3amb_chainA_3
     RDKit          3D

 33 37  0  0  0  0  0  0  0  0999 V2000
  -30.8597  -10.2401   -6.9797 N   0  0  0  0  0  0  0  0  0  0  0  0
  -30.4054   -9.9701   -5.6452 C   0  0  0  0  0  0  0  0  0  0  0  0
  -30.9087  -10.5371   -4.5165 C   0  0  0  0  0  0  0  0  0  0  0  0
  -30.1475   -9.9660   -3.4474 C   0  0  0  0  0  0  0  0  0  0  0  0
  -29.2759   -9.1287   -3.9567 N   0  0  0  0  0  0  0  0  0  0  0  0
  -29.3897   -9.0923   -5.3140 N   0  0  0  0  0  0  0  0  0  0  0  0
  -30.3219  -10.2755   -1.9698 C   0  0  0  0  0  0  0  0  0  0  0  0
  -31.8034  -10.4397  -14.2297 N   0  0  0  0  0  0  0  0  0  0  0  0
  -32.4917   -9.8893  -13.0500 C   0  0  0  0  0  0  0  0  0  0  0  0
  -31.5150   -9.3021  -12.0420 C   0  0  0  0  0  0  0  0  0  0  0  0
  -30.3620  -10.1898  -11.8228 N   0  0  0  0  0  0  0  0  0  0  0  0
  -29.8166  -11.0609  -12.8763 C   0  0  0  0  0  0  0  0  0  0  0  0
  -30.9015  -11.5342  -13.8328 C   0  0  0  0  0  0  0  0  0  0  0  0
  -32.8387  -11.0318  -15.0890 C   0  0  0  0  0  0  0  0  0  0  0  0
  -29.7526  -10.2148  -10.5253 C   0  0  0  0  0  0  0  0  0  0  0  0
  -30.5716  -10.2153   -9.4000 C   0  0  0  0  0  0  0  0  0  0  0  0
  -29.9970  -10.2391   -8.1327 C   0  0  0  0  0  0  0  0  0  0  0  0
  -28.6544  -10.2618   -8.0452 N   0  0  0  0  0  0  0  0  0  0  0  0
  -27.8490  -10.2617   -9.1223 C   0  0  0  0  0  0  0  0  0  0  0  0
  -28.4201  -10.2382  -10.3400 N   0  0  0  0  0  0  0  0  0  0  0  0
  -26.0817  -10.2924   -8.9333 S   0  0  0  0  0  0  0  0  0  0  0  0
  -26.1942  -10.3562   -7.1460 C   0  0  0  0  0  0  0  0  0  0  0  0
  -26.5126  -11.5594   -6.5243 C   0  0  0  0  0  0  0  0  0  0  0  0
  -26.6045  -11.6229   -5.1376 C   0  0  0  0  0  0  0  0  0  0  0  0
  -26.3737  -10.4728   -4.3900 C   0  0  0  0  0  0  0  0  0  0  0  0
  -26.0548   -9.2681   -5.0083 C   0  0  0  0  0  0  0  0  0  0  0  0
  -25.9642   -9.2078   -6.3952 C   0  0  0  0  0  0  0  0  0  0  0  0
  -26.4647  -10.5239   -2.9582 N   0  0  0  0  0  0  0  0  0  0  0  0
  -25.4683   -9.9662   -2.0792 C   0  0  0  0  0  0  0  0  0  0  0  0
  -24.2648   -9.9198   -2.4503 O   0  0  0  0  0  0  0  0  0  0  0  0
  -25.7940   -9.4611   -0.6934 C   0  0  0  0  0  0  0  0  0  0  0  0
  -27.1967   -9.0341   -0.3747 C   0  0  0  0  0  0  0  0  0  0  0  0
  -26.6582  -10.3168    0.1879 C   0  0  0  0  0  0  0  0  0  0  0  0
  1  2  1  0
  2  3  2  0
  2  6  1  0
  3  4  1  0
  4  5  2  0
  4  7  1  0
  5  6  1  0
  8  9  1  0
  8 13  1  0
  8 14  1  0
  9 10  1  0
 10 11  1  0
 11 12  1  0
 11 15  1  0
 12 13  1  0
 15 16  2  0
 15 20  1  0
 16 17  1  0
 17 18  2  0
 18 19  1  0
 19 20  2  0
 19 21  1  0
 22 23  2  0
 22 27  1  0
 23 24  1  0
 24 25  2  0
 25 26  1  0
 25 28  1  0
 26 27  2  0
 28 29  1  0
 29 30  2  0
 31 32  1  0
 31 33  1  0
 32 33  1  0
 17  1  1  0
 22 21  1  0
 31 29  1  0
M  CHG  1   8   1
M  END
>  <BIOSOLVEIT.HYDE_ESTIMATED_AFFINITY_LOWER_BOUNDARY [nM]>  (3) 
5211.260985

>  <BIOSOLVEIT.HYDE_ESTIMATED_AFFINITY_UPPER_BOUNDARY [nM]>  (3) 
517769.590298

>  <BIOSOLVEIT.LOGP>  (3) 
2.08612

>  <BIOSOLVEIT.MOLECULAR_WEIGHT>  (3) 
465.602

>  <BIOSOLVEIT.TPSA>  (3) 
103.27

>  <fragment_ids>  (3) 
{'AP': 0, 'SE': 0, 'FP': 0, 'GA': 0}

>  <smiles_ligand>  (3) 
Cc1cc(Nc2cc(N3CC[NH+](C)CC3)nc(Sc3ccc(NC(=O)C4CC4)cc3)n2)[nH]n1

>  <smiles_fragments_dummy>  (3) 
{'AP': 'Cc1cc(N)[nH]n1', 'SE': '[26*]c1cc(N2CC[NH+](C)CC2)nc(S[40*])n1', 'FP': 'O=CNc1ccccc1', 'GA': '[52*]C1CC1'}

>  <smiles_fragments>  (3) 
{'AP': '[22*]Nc1cc(C)n[nH]1', 'SE': 'C[NH+]1CCN(c2ccnc(S)n2)CC1', 'FP': '[39*]c1ccc(NC([54*])=O)cc1', 'GA': 'C1CC1'}

>  <BIOSOLVEIT.DOCKING_SCORE>  (3) 
11524.17

>  <filtered>  (3) 
0

$$$$
3amb_chainA_4
     RDKit          3D

 33 37  0  0  0  0  0  0  0  0999 V2000
  -30.9105  -10.4687   -7.1052 N   0  0  0  0  0  0  0  0  0  0  0  0
  -30.5766  -10.0794   -5.7646 C   0  0  0  0  0  0  0  0  0  0  0  0
  -31.1990  -10.5256   -4.6411 C   0  0  0  0  0  0  0  0  0  0  0  0
  -30.5266   -9.8677   -3.5624 C   0  0  0  0  0  0  0  0  0  0  0  0
  -29.5885   -9.0993   -4.0622 N   0  0  0  0  0  0  0  0  0  0  0  0
  -29.5732   -9.1921   -5.4215 N   0  0  0  0  0  0  0  0  0  0  0  0
  -30.8476  -10.0298   -2.0859 C   0  0  0  0  0  0  0  0  0  0  0  0
  -31.6101   -9.2588  -14.3611 N   0  0  0  0  0  0  0  0  0  0  0  0
  -32.4298   -9.6576  -13.2046 C   0  0  0  0  0  0  0  0  0  0  0  0
  -31.8200   -9.1999  -11.8881 C   0  0  0  0  0  0  0  0  0  0  0  0
  -30.3732   -9.4646  -11.8390 N   0  0  0  0  0  0  0  0  0  0  0  0
  -29.5176   -9.4351  -13.0361 C   0  0  0  0  0  0  0  0  0  0  0  0
  -30.2752   -9.8756  -14.2802 C   0  0  0  0  0  0  0  0  0  0  0  0
  -32.2627   -9.8117  -15.5565 C   0  0  0  0  0  0  0  0  0  0  0  0
  -29.7755   -9.7757  -10.5733 C   0  0  0  0  0  0  0  0  0  0  0  0
  -30.6027   -9.9689   -9.4709 C   0  0  0  0  0  0  0  0  0  0  0  0
  -30.0395  -10.2711   -8.2347 C   0  0  0  0  0  0  0  0  0  0  0  0
  -28.6997  -10.3665   -8.1543 N   0  0  0  0  0  0  0  0  0  0  0  0
  -27.8865  -10.1827   -9.2096 C   0  0  0  0  0  0  0  0  0  0  0  0
  -28.4467   -9.8909  -10.3973 N   0  0  0  0  0  0  0  0  0  0  0  0
  -26.1234  -10.3238   -9.0316 S   0  0  0  0  0  0  0  0  0  0  0  0
  -26.2031  -10.0798   -7.2580 C   0  0  0  0  0  0  0  0  0  0  0  0
  -26.3249  -11.1848   -6.4215 C   0  0  0  0  0  0  0  0  0  0  0  0
  -26.3889  -11.0097   -5.0428 C   0  0  0  0  0  0  0  0  0  0  0  0
  -26.3289   -9.7221   -4.5199 C   0  0  0  0  0  0  0  0  0  0  0  0
  -26.2069   -8.6151   -5.3534 C   0  0  0  0  0  0  0  0  0  0  0  0
  -26.1435   -8.7935   -6.7316 C   0  0  0  0  0  0  0  0  0  0  0  0
  -26.3936   -9.5268   -3.0992 N   0  0  0  0  0  0  0  0  0  0  0  0
  -26.9893  -10.4764   -2.1937 C   0  0  0  0  0  0  0  0  0  0  0  0
  -27.9388  -11.2046   -2.5896 O   0  0  0  0  0  0  0  0  0  0  0  0
  -26.5509  -10.6174   -0.7552 C   0  0  0  0  0  0  0  0  0  0  0  0
  -25.3447   -9.8655   -0.2744 C   0  0  0  0  0  0  0  0  0  0  0  0
  -26.7163   -9.4347    0.1554 C   0  0  0  0  0  0  0  0  0  0  0  0
  1  2  1  0
  2  3  2  0
  2  6  1  0
  3  4  1  0
  4  5  2  0
  4  7  1  0
  5  6  1  0
  8  9  1  0
  8 13  1  0
  8 14  1  0
  9 10  1  0
 10 11  1  0
 11 12  1  0
 11 15  1  0
 12 13  1  0
 15 16  2  0
 15 20  1  0
 16 17  1  0
 17 18  2  0
 18 19  1  0
 19 20  2  0
 19 21  1  0
 22 23  2  0
 22 27  1  0
 23 24  1  0
 24 25  2  0
 25 26  1  0
 25 28  1  0
 26 27  2  0
 28 29  1  0
 29 30  2  0
 31 32  1  0
 31 33  1  0
 32 33  1  0
 17  1  1  0
 22 21  1  0
 31 29  1  0
M  CHG  1   8   1
M  END
>  <BIOSOLVEIT.HYDE_ESTIMATED_AFFINITY_LOWER_BOUNDARY [nM]>  (4) 
5813.889662

>  <BIOSOLVEIT.HYDE_ESTIMATED_AFFINITY_UPPER_BOUNDARY [nM]>  (4) 
577644.312385

>  <BIOSOLVEIT.LOGP>  (4) 
2.08612

>  <BIOSOLVEIT.MOLECULAR_WEIGHT>  (4) 
465.602

>  <BIOSOLVEIT.TPSA>  (4) 
103.27

>  <fragment_ids>  (4) 
{'AP': 0, 'SE': 0, 'FP': 0, 'GA': 0}

>  <smiles_ligand>  (4) 
Cc1cc(Nc2cc(N3CC[NH+](C)CC3)nc(Sc3ccc(NC(=O)C4CC4)cc3)n2)[nH]n1

>  <smiles_fragments_dummy>  (4) 
{'AP': 'Cc1cc(N)[nH]n1', 'SE': '[26*]c1cc(N2CC[NH+](C)CC2)nc(S[40*])n1', 'FP': 'O=CNc1ccccc1', 'GA': '[52*]C1CC1'}

>  <smiles_fragments>  (4) 
{'AP': '[22*]Nc1cc(C)n[nH]1', 'SE': 'C[NH+]1CCN(c2ccnc(S)n2)CC1', 'FP': '[39*]c1ccc(NC([54*])=O)cc1', 'GA': 'C1CC1'}

>  <BIOSOLVEIT.DOCKING_SCORE>  (4) 
11718.64

>  <filtered>  (4) 
0

$$$$
