NWM59
paSeeSAR  09302516223D 1   1.00000     0.00000     0
SeeSAR 13.0.1 paulakramer
 46 48  0  0  0  0            999 V2000
  -14.5171    2.1971  -30.0662 C   0  0  0  0  0  0  0  0  0  0  0  0
  -12.6719    0.9145  -29.4200 C   0  0  0  0  0  0  0  0  0  0  0  0
  -13.1937    2.1674  -29.6459 C   0  0  0  0  0  0  0  0  0  0  0  0
  -11.0332    2.8169  -29.0004 C   0  0  0  0  0  0  0  0  0  0  0  0
  -12.2662    3.2432  -29.4075 C   0  0  0  0  0  0  0  0  0  0  0  0
   -9.8589    3.6623  -28.6661 C   0  0  0  0  0  0  0  0  0  0  0  0
  -15.2230    1.0102  -30.2330 C   0  0  0  0  0  0  0  0  0  0  0  0
  -14.6276   -0.2227  -29.9860 C   0  0  0  0  0  0  0  0  0  0  0  0
  -13.3125   -0.3026  -29.5679 C   0  0  0  0  0  0  0  0  0  0  0  0
  -11.0378    1.0966  -28.9126 S   0  0  0  0  0  0  0  0  0  0  0  0
   -8.9814    3.2301  -27.9121 O   0  0  0  0  0  0  0  0  0  0  0  0
   -9.7527    4.8785  -29.1760 N   0  0  0  0  0  0  0  0  0  0  0  0
  -17.2571    4.6677  -30.7463 C   0  0  0  0  0  0  0  0  0  0  0  0
  -18.0074    3.3248  -33.5669 C   0  0  0  0  0  0  0  0  0  0  0  0
  -19.6008    4.6635  -34.9763 C   0  0  0  0  0  0  0  0  0  0  0  0
  -15.2214    3.4742  -30.3493 C   0  0  0  0  0  0  0  0  0  0  0  0
  -14.4872    4.6488  -30.4783 C   0  0  0  0  0  0  0  0  0  0  0  0
  -15.1528    5.8414  -30.7432 C   0  0  0  0  0  0  0  0  0  0  0  0
  -16.5369    5.8503  -30.8777 C   0  0  0  0  0  0  0  0  0  0  0  0
  -18.6136    4.7193  -33.7989 C   0  0  0  0  0  0  0  0  0  0  0  0
  -17.4860    5.7159  -34.1185 C   0  0  0  0  0  0  0  0  0  0  0  0
  -16.6060    3.4679  -30.4802 C   0  0  0  0  0  0  0  0  0  0  0  0
  -17.1711    6.9890  -31.1317 F   0  0  0  0  0  0  0  0  0  0  0  0
  -18.6851    4.6870  -30.8858 N   0  0  0  0  0  0  0  0  0  0  0  0
  -19.5762    6.7665  -32.2997 O   0  0  0  0  0  0  0  0  0  0  0  0
  -20.8803    4.7110  -32.3312 O   0  0  0  0  0  0  0  0  0  0  0  0
  -19.4834    5.2666  -32.3167 S   0  0  0  0  0  0  0  0  0  0  0  0
  -12.5179    4.2751  -29.5366 H   0  0  0  0  0  0  0  0  0  0  0  0
  -16.2421    1.0461  -30.5570 H   0  0  0  0  0  0  0  0  0  0  0  0
  -15.1946   -1.1199  -30.1214 H   0  0  0  0  0  0  0  0  0  0  0  0
  -12.8266   -1.2358  -29.3733 H   0  0  0  0  0  0  0  0  0  0  0  0
  -17.3209    3.3661  -32.7472 H   0  0  0  0  0  0  0  0  0  0  0  0
  -18.7888    2.6289  -33.3429 H   0  0  0  0  0  0  0  0  0  0  0  0
  -17.4909    3.0092  -34.4492 H   0  0  0  0  0  0  0  0  0  0  0  0
  -20.0211    5.6345  -35.1356 H   0  0  0  0  0  0  0  0  0  0  0  0
  -19.0852    4.3487  -35.8594 H   0  0  0  0  0  0  0  0  0  0  0  0
  -20.3831    3.9684  -34.7532 H   0  0  0  0  0  0  0  0  0  0  0  0
  -13.4223    4.6352  -30.3748 H   0  0  0  0  0  0  0  0  0  0  0  0
  -14.5998    6.7518  -30.8436 H   0  0  0  0  0  0  0  0  0  0  0  0
  -17.9039    6.6874  -34.2806 H   0  0  0  0  0  0  0  0  0  0  0  0
  -16.8009    5.7547  -33.2975 H   0  0  0  0  0  0  0  0  0  0  0  0
  -16.9688    5.3986  -34.9999 H   0  0  0  0  0  0  0  0  0  0  0  0
  -17.1594    2.5578  -30.3781 H   0  0  0  0  0  0  0  0  0  0  0  0
  -19.2448    4.3527  -30.1275 H   0  0  0  0  0  0  0  0  0  0  0  0
   -8.9620    5.4477  -28.9508 H   0  0  0  0  0  0  0  0  0  0  0  0
  -10.4633    5.2284  -29.7865 H   0  0  0  0  0  0  0  0  0  0  0  0
  1  3  2  0  0  0  0
  1  7  1  0  0  0  0
  2  3  1  0  0  0  0
  2  9  2  0  0  0  0
  2 10  1  0  0  0  0
  3  5  1  0  0  0  0
  4  5  2  0  0  0  0
  4  6  1  0  0  0  0
  4 10  1  0  0  0  0
  6 11  2  0  0  0  0
  6 12  1  0  0  0  0
  7  8  2  0  0  0  0
  8  9  1  0  0  0  0
 13 19  2  0  0  0  0
 13 22  1  0  0  0  0
 13 24  1  0  0  0  0
 14 20  1  0  0  0  0
 15 20  1  0  0  0  0
 16 17  1  0  0  0  0
 16 22  2  0  0  0  0
 17 18  2  0  0  0  0
 18 19  1  0  0  0  0
 19 23  1  0  0  0  0
 20 21  1  0  0  0  0
 20 27  1  0  0  0  0
 24 27  1  0  0  0  0
 25 27  2  0  0  0  0
 26 27  2  0  0  0  0
 16  1  1  0  0  0  0
  5 28  1  0  0  0  0
  7 29  1  0  0  0  0
  8 30  1  0  0  0  0
  9 31  1  0  0  0  0
 24 44  1  0  0  0  0
 14 32  1  0  0  0  0
 14 33  1  0  0  0  0
 14 34  1  0  0  0  0
 15 35  1  0  0  0  0
 15 36  1  0  0  0  0
 15 37  1  0  0  0  0
 17 38  1  0  0  0  0
 18 39  1  0  0  0  0
 21 40  1  0  0  0  0
 21 41  1  0  0  0  0
 21 42  1  0  0  0  0
 22 43  1  0  0  0  0
 12 45  1  0  0  0  0
 12 46  1  0  0  0  0
M  END
> <BIOSOLVEIT.HYDE_ATOM_SCORES [kJ/mol]>
# Atom-ID; Total; Rec-Desolv; Rec-IA; Lig-Desolv; Lig-IA
1;-0.2960;0.0000;0.0000;-0.2960;0.0000
2;-0.4792;-0.1672;0.0000;-0.3119;0.0000
3;-1.6685;-1.3163;0.0000;-0.3522;0.0000
4;-3.6157;-3.0785;0.0000;-0.5372;0.0000
5;-1.2810;0.0000;0.0000;-1.2810;0.0000
6;-0.6322;0.0000;0.0000;-0.6322;0.0000
7;0.0048;0.6684;0.0000;-0.6636;0.0000
8;-1.1255;-0.3412;0.0000;-0.7843;0.0000
9;-1.7687;-1.1213;0.0000;-0.6474;0.0000
10;-3.0709;-2.4131;0.0000;-0.6578;0.0000
11;0.2130;8.7401;-8.4285;10.3012;-10.3998
12;-3.7747;4.5271;-7.9673;0.9569;-1.2914
13;0.0000;0.0000;0.0000;0.0000;0.0000
14;-3.9051;-1.4923;0.0000;-2.4129;0.0000
15;-4.4287;-2.2931;0.0000;-2.1356;0.0000
16;-0.6267;-0.3236;0.0000;-0.3032;0.0000
17;-5.8290;-4.4411;0.0000;-1.3879;0.0000
18;7.0224;8.1556;0.0000;-1.1332;0.0000
19;-0.1102;0.0000;0.0000;-0.1102;0.0000
20;0.0000;0.0000;0.0000;0.0000;0.0000
21;-3.4892;-0.7775;0.0000;-2.7117;0.0000
22;0.0000;0.0000;0.0000;0.0000;0.0000
23;-4.0609;-2.5443;0.0000;-1.5166;0.0000
24;0.0417;0.0768;0.0000;-0.0351;0.0000
25;0.4739;0.0000;0.0000;0.4739;0.0000
26;0.0046;0.0000;0.0000;0.0046;0.0000
27;0.0000;0.0000;0.0000;0.0000;0.0000

> <BIOSOLVEIT.HYDE_ESTIMATED_AFFINITY_LOWER_BOUNDARY [nM]>
182.704055

> <BIOSOLVEIT.HYDE_ESTIMATED_AFFINITY_UPPER_BOUNDARY [nM]>
18152.728058

> <BIOSOLVEIT.HYDE_LIGAND_EFFICIENCY range: ++, +, 0, -, -->
-

> <BIOSOLVEIT.HYDE_LIGAND_LIPOPHILIC_EFFICIENCY range: ++, +, 0, -, -->
--

> <BIOSOLVEIT.INTER_CLASH range: red, yellow, green>
green

> <BIOSOLVEIT.INTRA_CLASH range: red, yellow, green>
red

> <BIOSOLVEIT.LOGP>
4.9971

> <BIOSOLVEIT.MOLECULAR_WEIGHT>
406.498

> <BIOSOLVEIT.MOLECULE_CHECKSUM>
LTMyLjc2MjsxLjIxMzQx

> <BIOSOLVEIT.TORSION_QUALITY range: red, yellow, green, not rotatable>
red

> <BIOSOLVEIT.TPSA>
89.26

$$$$
NWM52
paSeeSAR  09302516223D 1   1.00000     0.00000     0
SeeSAR 13.0.1 paulakramer
 41 43  0  0  0  0            999 V2000
   -9.4824    4.9496  -28.4891 N   0  0  0  0  0  0  0  0  0  0  0  0
  -10.1884    3.7125  -28.6631 C   0  0  0  0  0  0  0  0  0  0  0  0
  -11.5745    3.7115  -28.7820 C   0  0  0  0  0  0  0  0  0  0  0  0
  -12.2618    2.5138  -28.9519 C   0  0  0  0  0  0  0  0  0  0  0  0
  -11.5309    1.3306  -28.9985 C   0  0  0  0  0  0  0  0  0  0  0  0
  -10.1463    1.3784  -28.8741 C   0  0  0  0  0  0  0  0  0  0  0  0
   -9.5164    2.5519  -28.7116 N   0  0  0  0  0  0  0  0  0  0  0  0
  -15.7915    3.4359  -29.9549 C   0  0  0  0  0  0  0  0  0  0  0  0
  -18.8527    6.1250  -34.9904 C   0  0  0  0  0  0  0  0  0  0  0  0
  -18.7295    6.8326  -33.7997 C   0  0  0  0  0  0  0  0  0  0  0  0
  -17.7385    4.1002  -31.4164 C   0  0  0  0  0  0  0  0  0  0  0  0
  -18.3664    6.1812  -32.6256 C   0  0  0  0  0  0  0  0  0  0  0  0
  -18.1270    4.8118  -32.6582 C   0  0  0  0  0  0  0  0  0  0  0  0
  -18.2459    4.0947  -33.8446 C   0  0  0  0  0  0  0  0  0  0  0  0
  -18.6103    4.7563  -35.0133 C   0  0  0  0  0  0  0  0  0  0  0  0
  -18.5238    3.2460  -30.9200 O   0  0  0  0  0  0  0  0  0  0  0  0
  -16.5004    4.3982  -30.7492 N   0  0  0  0  0  0  0  0  0  0  0  0
  -16.5181    2.4639  -29.2754 C   0  0  0  0  0  0  0  0  0  0  0  0
  -15.8573    1.5183  -28.4973 C   0  0  0  0  0  0  0  0  0  0  0  0
  -14.4702    1.5441  -28.3996 C   0  0  0  0  0  0  0  0  0  0  0  0
  -13.7431    2.5161  -29.0792 C   0  0  0  0  0  0  0  0  0  0  0  0
  -14.4039    3.4624  -29.8569 C   0  0  0  0  0  0  0  0  0  0  0  0
  -13.6356    4.5364  -30.6109 C   0  0  0  0  0  0  0  0  0  0  0  0
  -14.1479    5.7938  -30.2912 O   0  0  0  0  0  0  0  0  0  0  0  0
   -8.4860    4.9490  -28.4037 H   0  0  0  0  0  0  0  0  0  0  0  0
   -9.9868    5.8123  -28.4530 H   0  0  0  0  0  0  0  0  0  0  0  0
  -12.1138    4.6348  -28.7426 H   0  0  0  0  0  0  0  0  0  0  0  0
   -9.5789    0.4719  -28.9084 H   0  0  0  0  0  0  0  0  0  0  0  0
  -19.1338    6.6338  -35.8887 H   0  0  0  0  0  0  0  0  0  0  0  0
  -18.9156    7.8863  -33.7867 H   0  0  0  0  0  0  0  0  0  0  0  0
  -18.2725    6.7264  -31.7098 H   0  0  0  0  0  0  0  0  0  0  0  0
  -18.0583    3.0414  -33.8582 H   0  0  0  0  0  0  0  0  0  0  0  0
  -18.7040    4.2116  -35.9295 H   0  0  0  0  0  0  0  0  0  0  0  0
  -16.1161    5.3167  -30.8426 H   0  0  0  0  0  0  0  0  0  0  0  0
  -17.5853    2.4432  -29.3510 H   0  0  0  0  0  0  0  0  0  0  0  0
  -16.4166    0.7711  -27.9740 H   0  0  0  0  0  0  0  0  0  0  0  0
  -13.9622    0.8164  -27.8017 H   0  0  0  0  0  0  0  0  0  0  0  0
  -13.7323    4.3701  -31.6634 H   0  0  0  0  0  0  0  0  0  0  0  0
  -12.6023    4.4932  -30.3365 H   0  0  0  0  0  0  0  0  0  0  0  0
  -13.9664    5.9928  -29.3282 H   0  0  0  0  0  0  0  0  0  0  0  0
  -12.0293    0.3927  -29.1289 H   0  0  0  0  0  0  0  0  0  0  0  0
  1  2  1  0  0  0  0
  2  3  2  0  0  0  0
  2  7  1  0  0  0  0
  3  4  1  0  0  0  0
  4  5  2  0  0  0  0
  5  6  1  0  0  0  0
  6  7  2  0  0  0  0
  8 17  1  0  0  0  0
  8 18  2  0  0  0  0
  8 22  1  0  0  0  0
  9 10  2  0  0  0  0
  9 15  1  0  0  0  0
 10 12  1  0  0  0  0
 11 13  1  0  0  0  0
 11 16  2  0  0  0  0
 11 17  1  0  0  0  0
 12 13  2  0  0  0  0
 13 14  1  0  0  0  0
 14 15  2  0  0  0  0
 18 19  1  0  0  0  0
 19 20  2  0  0  0  0
 20 21  1  0  0  0  0
 21 22  2  0  0  0  0
 22 23  1  0  0  0  0
 23 24  1  0  0  0  0
 21  4  1  0  0  0  0
  1 25  1  0  0  0  0
  1 26  1  0  0  0  0
  3 27  1  0  0  0  0
  6 28  1  0  0  0  0
  9 29  1  0  0  0  0
 10 30  1  0  0  0  0
 12 31  1  0  0  0  0
 14 32  1  0  0  0  0
 15 33  1  0  0  0  0
 17 34  1  0  0  0  0
 18 35  1  0  0  0  0
 19 36  1  0  0  0  0
 20 37  1  0  0  0  0
 23 38  1  0  0  0  0
 23 39  1  0  0  0  0
 24 40  1  0  0  0  0
  5 41  1  0  0  0  0
M  END
> <BIOSOLVEIT.HYDE_ATOM_SCORES [kJ/mol]>
# Atom-ID; Total; Rec-Desolv; Rec-IA; Lig-Desolv; Lig-IA
1;-4.6335;7.2082;-10.4001;6.9871;-8.4287
2;-0.7130;0.0000;0.0000;-0.7130;0.0000
3;-4.5883;-3.3660;0.0000;-1.2222;0.0000
4;-0.2058;0.0000;0.0000;-0.2058;0.0000
5;-1.7169;-1.0376;0.0000;-0.6792;0.0000
6;-2.8735;-1.0661;0.0000;-1.8074;0.0000
7;-5.1183;4.9517;-8.4284;6.7868;-8.4284
8;-0.2068;0.0000;0.0000;-0.2068;0.0000
9;-1.5907;-0.8810;0.0000;-0.7098;0.0000
10;-1.9710;-1.2238;0.0000;-0.7471;0.0000
11;-0.0212;0.0000;0.0000;-0.0212;0.0000
12;-0.8650;-0.2295;0.0000;-0.6356;0.0000
13;-0.2930;0.0000;0.0000;-0.2930;0.0000
14;-2.1642;-0.8883;0.0000;-1.2760;0.0000
15;-3.7307;-2.1130;0.0000;-1.6177;0.0000
16;0.1042;0.0000;0.0000;0.1042;0.0000
17;-0.0257;0.0000;0.0000;-0.0257;0.0000
18;0.0824;0.2016;0.0000;-0.1192;0.0000
19;-0.6109;0.2305;0.0000;-0.8414;0.0000
20;-1.9953;-1.2238;0.0000;-0.7715;0.0000
21;-0.2388;0.0000;0.0000;-0.2388;0.0000
22;-0.2845;0.0000;0.0000;-0.2845;0.0000
23;-5.4761;-3.7732;0.0000;-1.7029;0.0000
24;-2.8444;8.3739;-9.6221;8.0260;-9.6221

> <BIOSOLVEIT.HYDE_ESTIMATED_AFFINITY_LOWER_BOUNDARY [nM]>
3.833384

> <BIOSOLVEIT.HYDE_ESTIMATED_AFFINITY_UPPER_BOUNDARY [nM]>
380.869374

> <BIOSOLVEIT.HYDE_LIGAND_EFFICIENCY range: ++, +, 0, -, -->
+

> <BIOSOLVEIT.HYDE_LIGAND_LIPOPHILIC_EFFICIENCY range: ++, +, 0, -, -->
0

> <BIOSOLVEIT.INTER_CLASH range: red, yellow, green>
green

> <BIOSOLVEIT.INTRA_CLASH range: red, yellow, green>
red

> <BIOSOLVEIT.LOGP>
3.0754

> <BIOSOLVEIT.MOLECULAR_WEIGHT>
319.362

> <BIOSOLVEIT.MOLECULE_CHECKSUM>
LTQyLjM0MTsxLjc2NDIx

> <BIOSOLVEIT.TORSION_QUALITY range: red, yellow, green, not rotatable>
yellow

> <BIOSOLVEIT.TPSA>
88.24

$$$$
DHS009
paSeeSAR  09302516223D 1   1.00000     0.00000     0
SeeSAR 13.0.1 paulakramer
 36 39  0  0  0  0            999 V2000
  -10.1143    3.1494  -28.7014 C   0  0  0  0  0  0  0  0  0  0  0  0
  -10.4924    0.8965  -28.4598 C   0  0  0  0  0  0  0  0  0  0  0  0
  -11.3724    3.3450  -29.2298 C   0  0  0  0  0  0  0  0  0  0  0  0
   -9.4371    4.3541  -28.6449 N   0  0  0  0  0  0  0  0  0  0  0  0
  -11.4774    4.7472  -29.5124 C   0  0  0  0  0  0  0  0  0  0  0  0
  -10.2938    5.3162  -29.1461 C   0  0  0  0  0  0  0  0  0  0  0  0
   -9.6716    1.9488  -28.3204 N   0  0  0  0  0  0  0  0  0  0  0  0
  -12.1950    2.2322  -29.3594 C   0  0  0  0  0  0  0  0  0  0  0  0
  -11.7268    1.0367  -28.9684 N   0  0  0  0  0  0  0  0  0  0  0  0
  -13.5691    2.3283  -29.9150 C   0  0  0  0  0  0  0  0  0  0  0  0
  -14.3575    3.4312  -29.6004 C   0  0  0  0  0  0  0  0  0  0  0  0
  -15.6459    3.5342  -30.1143 C   0  0  0  0  0  0  0  0  0  0  0  0
  -16.1296    2.5259  -30.9408 C   0  0  0  0  0  0  0  0  0  0  0  0
  -15.3452    1.4214  -31.2579 C   0  0  0  0  0  0  0  0  0  0  0  0
  -14.0571    1.3220  -30.7423 C   0  0  0  0  0  0  0  0  0  0  0  0
  -17.5030    2.6239  -31.4961 C   0  0  0  0  0  0  0  0  0  0  0  0
  -17.8948    3.6763  -32.4649 C   0  0  0  0  0  0  0  0  0  0  0  0
  -17.9938    4.9962  -32.0381 C   0  0  0  0  0  0  0  0  0  0  0  0
  -18.3622    5.9783  -32.9517 C   0  0  0  0  0  0  0  0  0  0  0  0
  -18.6279    5.6449  -34.2750 C   0  0  0  0  0  0  0  0  0  0  0  0
  -18.5267    4.3218  -34.6930 C   0  0  0  0  0  0  0  0  0  0  0  0
  -18.1590    3.3327  -33.7869 C   0  0  0  0  0  0  0  0  0  0  0  0
  -18.3678    1.7813  -31.1306 O   0  0  0  0  0  0  0  0  0  0  0  0
  -10.1563   -0.0739  -28.1596 H   0  0  0  0  0  0  0  0  0  0  0  0
   -8.5075    4.5007  -28.3069 H   0  0  0  0  0  0  0  0  0  0  0  0
  -10.0615    6.3570  -29.2339 H   0  0  0  0  0  0  0  0  0  0  0  0
  -13.9725    4.1998  -28.9633 H   0  0  0  0  0  0  0  0  0  0  0  0
  -16.2576    4.3794  -29.8765 H   0  0  0  0  0  0  0  0  0  0  0  0
  -15.7307    0.6527  -31.8947 H   0  0  0  0  0  0  0  0  0  0  0  0
  -13.4456    0.4769  -30.9804 H   0  0  0  0  0  0  0  0  0  0  0  0
  -17.7893    5.2531  -31.0198 H   0  0  0  0  0  0  0  0  0  0  0  0
  -18.4416    6.9970  -32.6339 H   0  0  0  0  0  0  0  0  0  0  0  0
  -18.9104    6.4060  -34.9721 H   0  0  0  0  0  0  0  0  0  0  0  0
  -18.7316    4.0651  -35.7113 H   0  0  0  0  0  0  0  0  0  0  0  0
  -18.0799    2.3140  -34.1046 H   0  0  0  0  0  0  0  0  0  0  0  0
  -12.3235    5.2509  -29.9309 H   0  0  0  0  0  0  0  0  0  0  0  0
  1  3  2  0  0  0  0
  1  4  1  0  0  0  0
  1  7  1  0  0  0  0
  2  7  2  0  0  0  0
  2  9  1  0  0  0  0
  3  5  1  0  0  0  0
  3  8  1  0  0  0  0
  4  6  1  0  0  0  0
  5  6  2  0  0  0  0
  8  9  2  0  0  0  0
 10 11  2  0  0  0  0
 10 15  1  0  0  0  0
 11 12  1  0  0  0  0
 12 13  2  0  0  0  0
 13 14  1  0  0  0  0
 13 16  1  0  0  0  0
 14 15  2  0  0  0  0
 16 17  1  0  0  0  0
 16 23  2  0  0  0  0
 17 18  2  0  0  0  0
 17 22  1  0  0  0  0
 18 19  1  0  0  0  0
 19 20  2  0  0  0  0
 20 21  1  0  0  0  0
 21 22  2  0  0  0  0
 10  8  1  0  0  0  0
  2 24  1  0  0  0  0
  4 25  1  0  0  0  0
  6 26  1  0  0  0  0
 11 27  1  0  0  0  0
 12 28  1  0  0  0  0
 14 29  1  0  0  0  0
 15 30  1  0  0  0  0
 18 31  1  0  0  0  0
 19 32  1  0  0  0  0
 20 33  1  0  0  0  0
 21 34  1  0  0  0  0
 22 35  1  0  0  0  0
  5 36  1  0  0  0  0
M  END
> <BIOSOLVEIT.HYDE_ATOM_SCORES [kJ/mol]>
# Atom-ID; Total; Rec-Desolv; Rec-IA; Lig-Desolv; Lig-IA
1;-4.0932;-3.2560;0.0000;-0.8372;0.0000
2;-1.8542;-0.2439;0.0000;-1.6103;0.0000
3;-0.5354;0.0000;0.0000;-0.5354;0.0000
4;-6.0009;6.0436;-10.4000;6.7842;-8.4287
5;-0.5658;0.5025;0.0000;-1.0683;0.0000
6;-4.2371;-2.5050;0.0000;-1.7322;0.0000
7;-3.7730;6.3426;-8.4287;6.7418;-8.4287
8;-0.5152;0.0000;0.0000;-0.5152;0.0000
9;-1.5356;-1.4160;0.0000;-0.1196;0.0000
10;-0.2428;0.0000;0.0000;-0.2428;0.0000
11;-1.6069;-0.8001;0.0000;-0.8068;0.0000
12;-0.3617;0.0000;0.0000;-0.3617;0.0000
13;-3.1728;-3.0157;0.0000;-0.1571;0.0000
14;-2.0820;-0.6589;0.0000;-1.4231;0.0000
15;-3.4449;-2.2592;0.0000;-1.1857;0.0000
16;-0.0627;0.0000;0.0000;-0.0627;0.0000
17;-0.0978;0.0000;0.0000;-0.0978;0.0000
18;-0.4137;0.0000;0.0000;-0.4137;0.0000
19;-1.7637;-0.9441;0.0000;-0.8196;0.0000
20;-0.5345;-0.0807;0.0000;-0.4539;0.0000
21;-3.0394;-1.5253;0.0000;-1.5141;0.0000
22;-2.6723;-1.0174;0.0000;-1.6549;0.0000
23;-1.3395;-1.3256;0.0000;-0.0140;0.0000

> <BIOSOLVEIT.HYDE_ESTIMATED_AFFINITY_LOWER_BOUNDARY [nM]>
1.735640

> <BIOSOLVEIT.HYDE_ESTIMATED_AFFINITY_UPPER_BOUNDARY [nM]>
172.446122

> <BIOSOLVEIT.HYDE_LIGAND_EFFICIENCY range: ++, +, 0, -, -->
+

> <BIOSOLVEIT.HYDE_LIGAND_LIPOPHILIC_EFFICIENCY range: ++, +, 0, -, -->
0

> <BIOSOLVEIT.INTER_CLASH range: red, yellow, green>
green

> <BIOSOLVEIT.INTRA_CLASH range: red, yellow, green>
green

> <BIOSOLVEIT.LOGP>
3.8559

> <BIOSOLVEIT.MOLECULAR_WEIGHT>
299.332

> <BIOSOLVEIT.MOLECULE_CHECKSUM>
LTQ0LjMwNTI7MS45MjYzMQ==

> <BIOSOLVEIT.TORSION_QUALITY range: red, yellow, green, not rotatable>
red

> <BIOSOLVEIT.TPSA>
58.64

$$$$
DHS003
paSeeSAR  09302516223D 1   1.00000     0.00000     0
SeeSAR 13.0.1 paulakramer
 34 37  0  0  0  0            999 V2000
  -12.1478    2.0599  -29.2937 C   0  0  0  0  0  0  0  0  0  0  0  0
  -11.6503    0.8309  -28.8729 C   0  0  0  0  0  0  0  0  0  0  0  0
  -10.3555    0.7758  -28.3671 C   0  0  0  0  0  0  0  0  0  0  0  0
   -9.6019    1.8828  -28.2874 N   0  0  0  0  0  0  0  0  0  0  0  0
  -11.3380    3.1877  -29.1932 C   0  0  0  0  0  0  0  0  0  0  0  0
  -10.0626    3.0784  -28.6862 C   0  0  0  0  0  0  0  0  0  0  0  0
   -9.4612    4.3270  -28.6963 N   0  0  0  0  0  0  0  0  0  0  0  0
  -10.3644    5.2406  -29.2159 C   0  0  0  0  0  0  0  0  0  0  0  0
  -11.5144    4.5734  -29.5275 C   0  0  0  0  0  0  0  0  0  0  0  0
  -16.7275    6.4755  -31.0327 C   0  0  0  0  0  0  0  0  0  0  0  0
  -15.9287    7.4814  -31.3027 N   0  0  0  0  0  0  0  0  0  0  0  0
  -14.7415    7.3082  -30.6093 C   0  0  0  0  0  0  0  0  0  0  0  0
  -14.8161    6.1958  -29.9165 N   0  0  0  0  0  0  0  0  0  0  0  0
  -16.0424    5.6529  -30.1588 N   0  0  0  0  0  0  0  0  0  0  0  0
  -16.5482    4.4102  -29.5875 C   0  0  0  0  0  0  0  0  0  0  0  0
  -15.6383    3.2561  -29.9747 C   0  0  0  0  0  0  0  0  0  0  0  0
  -14.3451    3.1921  -29.4679 C   0  0  0  0  0  0  0  0  0  0  0  0
  -16.1185    2.2754  -30.8369 C   0  0  0  0  0  0  0  0  0  0  0  0
  -15.2854    1.2195  -31.1915 C   0  0  0  0  0  0  0  0  0  0  0  0
  -13.9882    1.1350  -30.6966 C   0  0  0  0  0  0  0  0  0  0  0  0
  -13.5294    2.1272  -29.8360 C   0  0  0  0  0  0  0  0  0  0  0  0
  -12.2504   -0.0527  -28.9367 H   0  0  0  0  0  0  0  0  0  0  0  0
   -9.9559   -0.1606  -28.0378 H   0  0  0  0  0  0  0  0  0  0  0  0
   -8.5344    4.5334  -28.3825 H   0  0  0  0  0  0  0  0  0  0  0  0
  -10.1907    6.2880  -29.3498 H   0  0  0  0  0  0  0  0  0  0  0  0
  -17.7153    6.3224  -31.4145 H   0  0  0  0  0  0  0  0  0  0  0  0
  -13.9025    7.9718  -30.6346 H   0  0  0  0  0  0  0  0  0  0  0  0
  -17.5345    4.2244  -29.9585 H   0  0  0  0  0  0  0  0  0  0  0  0
  -16.5785    4.4960  -28.5214 H   0  0  0  0  0  0  0  0  0  0  0  0
  -13.9831    3.9501  -28.8052 H   0  0  0  0  0  0  0  0  0  0  0  0
  -17.1151    2.3326  -31.2220 H   0  0  0  0  0  0  0  0  0  0  0  0
  -15.6475    0.4615  -31.8543 H   0  0  0  0  0  0  0  0  0  0  0  0
  -13.3531    0.3196  -30.9736 H   0  0  0  0  0  0  0  0  0  0  0  0
  -12.3963    5.0086  -29.9488 H   0  0  0  0  0  0  0  0  0  0  0  0
  1  2  2  0  0  0  0
  1  5  1  0  0  0  0
  2  3  1  0  0  0  0
  3  4  2  0  0  0  0
  4  6  1  0  0  0  0
  5  6  2  0  0  0  0
  5  9  1  0  0  0  0
  6  7  1  0  0  0  0
  7  8  1  0  0  0  0
  8  9  2  0  0  0  0
 10 11  2  0  0  0  0
 10 14  1  0  0  0  0
 11 12  1  0  0  0  0
 12 13  2  0  0  0  0
 13 14  1  0  0  0  0
 14 15  1  0  0  0  0
 15 16  1  0  0  0  0
 16 17  2  0  0  0  0
 16 18  1  0  0  0  0
 17 21  1  0  0  0  0
 18 19  2  0  0  0  0
 19 20  1  0  0  0  0
 20 21  2  0  0  0  0
 21  1  1  0  0  0  0
  2 22  1  0  0  0  0
  3 23  1  0  0  0  0
  7 24  1  0  0  0  0
  8 25  1  0  0  0  0
 10 26  1  0  0  0  0
 12 27  1  0  0  0  0
 15 28  1  0  0  0  0
 15 29  1  0  0  0  0
 17 30  1  0  0  0  0
 18 31  1  0  0  0  0
 19 32  1  0  0  0  0
 20 33  1  0  0  0  0
  9 34  1  0  0  0  0
M  END
> <BIOSOLVEIT.HYDE_ATOM_SCORES [kJ/mol]>
# Atom-ID; Total; Rec-Desolv; Rec-IA; Lig-Desolv; Lig-IA
1;-0.3809;0.0000;0.0000;-0.3809;0.0000
2;-2.3808;-1.5853;0.0000;-0.7955;0.0000
3;-1.6905;-0.2439;0.0000;-1.4466;0.0000
4;-3.7584;6.3426;-8.4288;6.7566;-8.4288
5;-0.5191;0.0000;0.0000;-0.5191;0.0000
6;-4.0465;-3.2956;0.0000;-0.7509;0.0000
7;-7.4582;4.5567;-10.4001;6.8139;-8.4287
8;-3.2924;-1.3170;0.0000;-1.9754;0.0000
9;-1.3014;0.0000;0.0000;-1.3014;0.0000
10;-2.8038;-1.6161;0.0000;-1.1877;0.0000
11;-2.5370;0.8673;-2.2975;6.8359;-7.9427
12;-2.2082;-0.5417;0.0000;-1.6665;0.0000
13;-3.4177;7.7429;-9.6220;6.8899;-8.4285
14;-0.1092;0.0000;0.0000;-0.1092;0.0000
15;-0.5182;0.0441;0.0000;-0.5622;0.0000
16;-0.1031;0.0000;0.0000;-0.1031;0.0000
17;-0.8490;0.0000;0.0000;-0.8490;0.0000
18;-2.5678;-2.0476;0.0000;-0.5202;0.0000
19;-2.5461;-1.3073;0.0000;-1.2388;0.0000
20;-3.7216;-2.5074;0.0000;-1.2142;0.0000
21;-0.2246;0.0000;0.0000;-0.2246;0.0000

> <BIOSOLVEIT.HYDE_ESTIMATED_AFFINITY_LOWER_BOUNDARY [nM]>
0.635850

> <BIOSOLVEIT.HYDE_ESTIMATED_AFFINITY_UPPER_BOUNDARY [nM]>
63.175456

> <BIOSOLVEIT.HYDE_LIGAND_EFFICIENCY range: ++, +, 0, -, -->
++

> <BIOSOLVEIT.HYDE_LIGAND_LIPOPHILIC_EFFICIENCY range: ++, +, 0, -, -->
+

> <BIOSOLVEIT.INTER_CLASH range: red, yellow, green>
green

> <BIOSOLVEIT.INTRA_CLASH range: red, yellow, green>
green

> <BIOSOLVEIT.LOGP>
2.8697

> <BIOSOLVEIT.MOLECULAR_WEIGHT>
275.314

> <BIOSOLVEIT.MOLECULE_CHECKSUM>
LTQ2Ljc5NDU7Mi4yMjgzMQ==

> <BIOSOLVEIT.TORSION_QUALITY range: red, yellow, green, not rotatable>
green

> <BIOSOLVEIT.TPSA>
59.39

$$$$
DHS007
paSeeSAR  09302516223D 1   1.00000     0.00000     0
SeeSAR 13.0.1 paulakramer
 41 42  0  0  0  0            999 V2000
  -13.2554    1.6138  -30.2090 C   0  0  0  0  0  0  0  0  0  0  0  0
  -14.0809    2.7330  -30.1864 C   0  0  0  0  0  0  0  0  0  0  0  0
  -13.5773    3.9289  -29.6857 C   0  0  0  0  0  0  0  0  0  0  0  0
  -12.2729    4.0181  -29.2119 C   0  0  0  0  0  0  0  0  0  0  0  0
  -11.4682    2.8843  -29.2457 C   0  0  0  0  0  0  0  0  0  0  0  0
  -11.9470    1.6766  -29.7413 C   0  0  0  0  0  0  0  0  0  0  0  0
  -10.0726    2.9602  -28.7441 C   0  0  0  0  0  0  0  0  0  0  0  0
   -9.4855    1.9081  -28.3730 O   0  0  0  0  0  0  0  0  0  0  0  0
   -9.3652    4.2020  -28.6865 N   0  0  0  0  0  0  0  0  0  0  0  0
  -14.4152    5.0936  -29.6557 N   0  0  0  0  0  0  0  0  0  0  0  0
  -15.8314    5.0765  -30.0340 C   0  0  0  0  0  0  0  0  0  0  0  0
  -16.7454    5.0895  -28.8012 C   0  0  0  0  0  0  0  0  0  0  0  0
  -17.7108    3.8795  -28.7927 C   0  0  0  0  0  0  0  0  0  0  0  0
  -19.1200    4.2086  -28.4601 N   0  3  0  0  0  0  0  0  0  0  0  0
  -19.9298    2.9918  -28.2997 C   0  0  0  0  0  0  0  0  0  0  0  0
  -21.3683    3.3569  -27.9693 C   0  0  0  0  0  0  0  0  0  0  0  0
  -21.9144    4.1897  -28.9828 O   0  0  0  0  0  0  0  0  0  0  0  0
  -21.1627    5.3816  -29.1638 C   0  0  0  0  0  0  0  0  0  0  0  0
  -19.7197    5.0471  -29.5085 C   0  0  0  0  0  0  0  0  0  0  0  0
  -15.0861    2.6750  -30.5482 H   0  0  0  0  0  0  0  0  0  0  0  0
  -11.8950    4.9427  -28.8281 H   0  0  0  0  0  0  0  0  0  0  0  0
  -11.3196    0.8101  -29.7624 H   0  0  0  0  0  0  0  0  0  0  0  0
   -8.4258    4.2270  -28.3446 H   0  0  0  0  0  0  0  0  0  0  0  0
   -9.8101    5.0454  -28.9880 H   0  0  0  0  0  0  0  0  0  0  0  0
  -14.0127    5.9606  -29.3620 H   0  0  0  0  0  0  0  0  0  0  0  0
  -16.0283    4.1919  -30.6030 H   0  0  0  0  0  0  0  0  0  0  0  0
  -16.0417    5.9388  -30.6314 H   0  0  0  0  0  0  0  0  0  0  0  0
  -17.3203    5.9919  -28.8050 H   0  0  0  0  0  0  0  0  0  0  0  0
  -16.1396    5.0562  -27.9198 H   0  0  0  0  0  0  0  0  0  0  0  0
  -17.3544    3.1747  -28.0708 H   0  0  0  0  0  0  0  0  0  0  0  0
  -17.6938    3.4335  -29.7651 H   0  0  0  0  0  0  0  0  0  0  0  0
  -19.1339    4.7166  -27.5988 H   0  0  0  0  0  0  0  0  0  0  0  0
  -19.5245    2.3997  -27.5060 H   0  0  0  0  0  0  0  0  0  0  0  0
  -19.9081    2.4305  -29.2104 H   0  0  0  0  0  0  0  0  0  0  0  0
  -21.3940    3.8767  -27.0344 H   0  0  0  0  0  0  0  0  0  0  0  0
  -21.9509    2.4624  -27.8963 H   0  0  0  0  0  0  0  0  0  0  0  0
  -21.1863    5.9545  -28.2604 H   0  0  0  0  0  0  0  0  0  0  0  0
  -21.5927    5.9528  -29.9597 H   0  0  0  0  0  0  0  0  0  0  0  0
  -19.6934    4.5195  -30.4391 H   0  0  0  0  0  0  0  0  0  0  0  0
  -19.1596    5.9545  -29.5970 H   0  0  0  0  0  0  0  0  0  0  0  0
  -13.6332    0.6892  -30.5924 H   0  0  0  0  0  0  0  0  0  0  0  0
  1  2  2  0  0  0  0
  1  6  1  0  0  0  0
  2  3  1  0  0  0  0
  3  4  2  0  0  0  0
  4  5  1  0  0  0  0
  5  6  2  0  0  0  0
  5  7  1  0  0  0  0
  7  8  2  0  0  0  0
  7  9  1  0  0  0  0
 10 11  1  0  0  0  0
 11 12  1  0  0  0  0
 12 13  1  0  0  0  0
 13 14  1  0  0  0  0
 14 15  1  0  0  0  0
 14 19  1  0  0  0  0
 15 16  1  0  0  0  0
 16 17  1  0  0  0  0
 17 18  1  0  0  0  0
 18 19  1  0  0  0  0
 10  3  1  0  0  0  0
  2 20  1  0  0  0  0
  4 21  1  0  0  0  0
  6 22  1  0  0  0  0
  9 23  1  0  0  0  0
  9 24  1  0  0  0  0
 10 25  1  0  0  0  0
 11 26  1  0  0  0  0
 11 27  1  0  0  0  0
 12 28  1  0  0  0  0
 12 29  1  0  0  0  0
 13 30  1  0  0  0  0
 13 31  1  0  0  0  0
 14 32  1  0  0  0  0
 15 33  1  0  0  0  0
 15 34  1  0  0  0  0
 16 35  1  0  0  0  0
 16 36  1  0  0  0  0
 18 37  1  0  0  0  0
 18 38  1  0  0  0  0
 19 39  1  0  0  0  0
 19 40  1  0  0  0  0
  1 41  1  0  0  0  0
M  CHG  1  14   1
M  END
> <BIOSOLVEIT.HYDE_ATOM_SCORES [kJ/mol]>
# Atom-ID; Total; Rec-Desolv; Rec-IA; Lig-Desolv; Lig-IA
1;-2.8207;-2.0336;0.0000;-0.7871;0.0000
2;-1.7889;-1.0738;0.0000;-0.7151;0.0000
3;-0.2669;0.0000;0.0000;-0.2669;0.0000
4;-1.1563;0.0000;0.0000;-1.1563;0.0000
5;-0.4945;0.0000;0.0000;-0.4945;0.0000
6;-2.3628;-1.3470;0.0000;-1.0158;0.0000
7;-3.7987;-2.8526;0.0000;-0.9461;0.0000
8;-3.4151;6.1404;-8.4287;9.2733;-10.4001
9;-5.8689;5.7733;-10.1352;6.7069;-8.2140
10;-2.4915;8.5254;-9.6053;7.0022;-8.4138
11;-0.6341;0.0000;0.0000;-0.6341;0.0000
12;-4.4092;-2.5775;0.0000;-1.8317;0.0000
13;-0.3645;0.0000;0.0000;-0.3645;0.0000
14;-2.0637;10.1642;-10.4001;10.3626;-12.1904
15;-1.4743;-0.4309;0.0000;-1.0434;0.0000
16;-3.8937;-2.5798;0.0000;-1.3139;0.0000
17;-3.3048;10.3626;-12.1899;8.1444;-9.6219
18;-0.8179;0.2643;0.0000;-1.0823;0.0000
19;-0.4621;0.1758;0.0000;-0.6379;0.0000

> <BIOSOLVEIT.HYDE_ESTIMATED_AFFINITY_LOWER_BOUNDARY [nM]>
3.978746

> <BIOSOLVEIT.HYDE_ESTIMATED_AFFINITY_UPPER_BOUNDARY [nM]>
395.311952

> <BIOSOLVEIT.HYDE_LIGAND_EFFICIENCY range: ++, +, 0, -, -->
++

> <BIOSOLVEIT.HYDE_LIGAND_LIPOPHILIC_EFFICIENCY range: ++, +, 0, -, -->
++

> <BIOSOLVEIT.INTER_CLASH range: red, yellow, green>
green

> <BIOSOLVEIT.INTRA_CLASH range: red, yellow, green>
green

> <BIOSOLVEIT.LOGP>
-0.4974

> <BIOSOLVEIT.MOLECULAR_WEIGHT>
264.347

> <BIOSOLVEIT.MOLECULE_CHECKSUM>
LTQyLjI0ODc7Mi4yMjM2Mg==

> <BIOSOLVEIT.TORSION_QUALITY range: red, yellow, green, not rotatable>
red

> <BIOSOLVEIT.TPSA>
68.79

$$$$
NWM78
paSeeSAR  09302516223D 1   1.00000     0.00000     0
SeeSAR 13.0.1 paulakramer
 45 47  0  0  0  0            999 V2000
  -12.8779    0.7246  -30.3220 C   0  0  0  0  0  0  0  0  0  0  0  0
  -13.9065    1.6597  -30.3738 C   0  0  0  0  0  0  0  0  0  0  0  0
  -13.7244    2.9608  -29.9153 C   0  0  0  0  0  0  0  0  0  0  0  0
  -12.4784    3.3071  -29.3992 C   0  0  0  0  0  0  0  0  0  0  0  0
  -11.4294    2.3937  -29.3340 C   0  0  0  0  0  0  0  0  0  0  0  0
  -11.6441    1.1014  -29.8012 C   0  0  0  0  0  0  0  0  0  0  0  0
  -10.1032    2.7709  -28.7825 C   0  0  0  0  0  0  0  0  0  0  0  0
   -9.3611    1.8824  -28.2824 O   0  0  0  0  0  0  0  0  0  0  0  0
   -9.6379    4.1231  -28.8203 N   0  0  0  0  0  0  0  0  0  0  0  0
  -14.8072    3.9043  -29.9817 N   0  0  0  0  0  0  0  0  0  0  0  0
  -16.1159    3.4946  -29.4419 C   0  0  0  0  0  0  0  0  0  0  0  0
  -16.8837    4.6684  -28.8462 C   0  0  0  0  0  0  0  0  0  0  0  0
  -16.8182    5.9319  -29.6949 C   0  0  2  0  0  0  0  0  0  0  0  0
  -17.5671    5.7742  -31.0098 C   0  0  0  0  0  0  0  0  0  0  0  0
  -18.0827    4.6609  -31.3018 O   0  0  0  0  0  0  0  0  0  0  0  0
  -17.7199    6.8990  -31.8923 N   0  0  0  0  0  0  0  0  0  0  0  0
  -18.4095    6.8483  -33.1533 C   0  0  0  0  0  0  0  0  0  0  0  0
  -19.6041    7.5432  -33.3080 C   0  0  0  0  0  0  0  0  0  0  0  0
  -20.2662    7.4896  -34.5300 C   0  0  0  0  0  0  0  0  0  0  0  0
  -19.7406    6.7508  -35.5839 C   0  0  0  0  0  0  0  0  0  0  0  0
  -18.5451    6.0583  -35.4199 C   0  0  0  0  0  0  0  0  0  0  0  0
  -17.8756    6.1058  -34.2017 C   0  0  0  0  0  0  0  0  0  0  0  0
  -15.3599    6.3181  -29.9110 C   0  0  0  0  0  0  0  0  0  0  0  0
  -14.5330    5.2247  -30.5734 C   0  0  0  0  0  0  0  0  0  0  0  0
  -14.8564    1.3728  -30.7740 H   0  0  0  0  0  0  0  0  0  0  0  0
  -12.3224    4.3037  -29.0424 H   0  0  0  0  0  0  0  0  0  0  0  0
  -10.8490    0.3866  -29.7593 H   0  0  0  0  0  0  0  0  0  0  0  0
   -8.7411    4.3540  -28.4428 H   0  0  0  0  0  0  0  0  0  0  0  0
  -10.2094    4.8373  -29.2243 H   0  0  0  0  0  0  0  0  0  0  0  0
  -15.9600    2.7614  -28.6785 H   0  0  0  0  0  0  0  0  0  0  0  0
  -16.6970    3.0682  -30.2328 H   0  0  0  0  0  0  0  0  0  0  0  0
  -16.4741    4.8865  -27.8821 H   0  0  0  0  0  0  0  0  0  0  0  0
  -17.9099    4.3837  -28.7417 H   0  0  0  0  0  0  0  0  0  0  0  0
  -17.2870    6.7204  -29.1441 H   0  0  0  0  0  0  0  0  0  0  0  0
  -17.3214    7.7721  -31.6113 H   0  0  0  0  0  0  0  0  0  0  0  0
  -20.0089    8.1120  -32.4971 H   0  0  0  0  0  0  0  0  0  0  0  0
  -21.1861    8.0204  -34.6597 H   0  0  0  0  0  0  0  0  0  0  0  0
  -20.2555    6.7146  -36.5212 H   0  0  0  0  0  0  0  0  0  0  0  0
  -18.1407    5.4893  -36.2309 H   0  0  0  0  0  0  0  0  0  0  0  0
  -16.9557    5.5749  -34.0718 H   0  0  0  0  0  0  0  0  0  0  0  0
  -14.9246    6.5424  -28.9595 H   0  0  0  0  0  0  0  0  0  0  0  0
  -15.3288    7.1892  -30.5316 H   0  0  0  0  0  0  0  0  0  0  0  0
  -14.7700    5.1938  -31.6164 H   0  0  0  0  0  0  0  0  0  0  0  0
  -13.4947    5.4516  -30.4503 H   0  0  0  0  0  0  0  0  0  0  0  0
  -13.0336   -0.2721  -30.6785 H   0  0  0  0  0  0  0  0  0  0  0  0
  1  2  2  0  0  0  0
  1  6  1  0  0  0  0
  2  3  1  0  0  0  0
  3  4  2  0  0  0  0
  4  5  1  0  0  0  0
  5  6  2  0  0  0  0
  5  7  1  0  0  0  0
  7  8  2  0  0  0  0
  7  9  1  0  0  0  0
 10 11  1  0  0  0  0
 10 24  1  0  0  0  0
 11 12  1  0  0  0  0
 12 13  1  0  0  0  0
 13 14  1  0  0  0  0
 13 23  1  0  0  0  0
 14 15  2  0  0  0  0
 14 16  1  0  0  0  0
 16 17  1  0  0  0  0
 17 18  2  0  0  0  0
 17 22  1  0  0  0  0
 18 19  1  0  0  0  0
 19 20  2  0  0  0  0
 20 21  1  0  0  0  0
 21 22  2  0  0  0  0
 23 24  1  0  0  0  0
 10  3  1  0  0  0  0
  2 25  1  0  0  0  0
  4 26  1  0  0  0  0
  6 27  1  0  0  0  0
  9 28  1  0  0  0  0
  9 29  1  0  0  0  0
 11 30  1  0  0  0  0
 11 31  1  0  0  0  0
 12 32  1  0  0  0  0
 12 33  1  0  0  0  0
 13 34  1  0  0  0  0
 16 35  1  0  0  0  0
 18 36  1  0  0  0  0
 19 37  1  0  0  0  0
 20 38  1  0  0  0  0
 21 39  1  0  0  0  0
 22 40  1  0  0  0  0
 23 41  1  0  0  0  0
 23 42  1  0  0  0  0
 24 43  1  0  0  0  0
 24 44  1  0  0  0  0
  1 45  1  0  0  0  0
M  END
> <BIOSOLVEIT.HYDE_ATOM_SCORES [kJ/mol]>
# Atom-ID; Total; Rec-Desolv; Rec-IA; Lig-Desolv; Lig-IA
1;-1.9049;-0.8641;0.0000;-1.0408;0.0000
2;-2.3166;-1.4813;0.0000;-0.8352;0.0000
3;-0.1052;0.0000;0.0000;-0.1052;0.0000
4;-1.2227;0.0000;0.0000;-1.2227;0.0000
5;-0.4333;0.0000;0.0000;-0.4333;0.0000
6;-2.5758;-1.3470;0.0000;-1.2288;0.0000
7;-3.5421;-2.7538;0.0000;-0.7883;0.0000
8;-2.4694;6.0988;-8.4288;10.2608;-10.4002
9;-6.2030;5.9084;-10.3999;6.7171;-8.4286
10;0.0000;0.0000;0.0000;0.0000;0.0000
11;-0.1058;0.0287;0.0000;-0.1345;0.0000
12;-1.7863;-0.7427;0.0000;-1.0437;0.0000
13;-2.1067;-1.3807;0.0000;-0.7260;0.0000
14;-0.1689;0.0000;0.0000;-0.1689;0.0000
15;-0.0204;0.0000;0.0000;-0.0204;0.0000
16;-1.8201;1.5427;-2.2863;6.8274;-7.9039
17;-1.9762;-1.6671;0.0000;-0.3092;0.0000
18;-0.7527;0.0000;0.0000;-0.7527;0.0000
19;-1.5472;-0.9813;0.0000;-0.5658;0.0000
20;-3.4195;-2.2231;0.0000;-1.1964;0.0000
21;-2.4233;-1.0908;0.0000;-1.3325;0.0000
22;-2.1051;-0.5330;0.0000;-1.5721;0.0000
23;1.0808;2.8099;0.0000;-1.7291;0.0000
24;-3.8562;-2.4962;0.0000;-1.3601;0.0000

> <BIOSOLVEIT.HYDE_ESTIMATED_AFFINITY_LOWER_BOUNDARY [nM]>
4.157441

> <BIOSOLVEIT.HYDE_ESTIMATED_AFFINITY_UPPER_BOUNDARY [nM]>
413.066347

> <BIOSOLVEIT.HYDE_LIGAND_EFFICIENCY range: ++, +, 0, -, -->
+

> <BIOSOLVEIT.HYDE_LIGAND_LIPOPHILIC_EFFICIENCY range: ++, +, 0, -, -->
0

> <BIOSOLVEIT.INTER_CLASH range: red, yellow, green>
green

> <BIOSOLVEIT.INTRA_CLASH range: red, yellow, green>
green

> <BIOSOLVEIT.LOGP>
2.6406

> <BIOSOLVEIT.MOLECULAR_WEIGHT>
323.394

> <BIOSOLVEIT.MOLECULE_CHECKSUM>
LTQyLjEzOTg7MS43NTU4Mw==

> <BIOSOLVEIT.TORSION_QUALITY range: red, yellow, green, not rotatable>
yellow

> <BIOSOLVEIT.TPSA>
75.43

$$$$
NWM61
paSeeSAR  09302516223D 1   1.00000     0.00000     0
SeeSAR 13.0.1 paulakramer
 46 49  0  0  0  0            999 V2000
  -12.3596    2.3820  -29.0140 C   0  0  0  0  0  0  0  0  0  0  0  0
  -11.4325    3.4177  -29.0914 C   0  0  0  0  0  0  0  0  0  0  0  0
  -11.5724    4.7880  -29.4955 C   0  0  0  0  0  0  0  0  0  0  0  0
  -10.1172    3.2129  -28.7540 C   0  0  0  0  0  0  0  0  0  0  0  0
   -9.4566    4.4221  -28.9416 N   0  0  0  0  0  0  0  0  0  0  0  0
  -10.3478    5.3798  -29.3936 C   0  0  0  0  0  0  0  0  0  0  0  0
   -9.7336    1.9926  -28.3469 N   0  0  0  0  0  0  0  0  0  0  0  0
  -10.5924    0.9653  -28.2556 C   0  0  0  0  0  0  0  0  0  0  0  0
  -11.9328    1.1300  -28.5865 C   0  0  0  0  0  0  0  0  0  0  0  0
  -18.8009    3.5161  -34.0641 C   0  0  0  0  0  0  0  0  0  0  0  0
  -18.6916    4.6874  -35.0279 C   0  0  0  0  0  0  0  0  0  0  0  0
  -19.4210    5.8565  -34.5154 N   0  3  0  0  0  0  0  0  0  0  0  0
  -18.9073    6.2688  -33.2005 C   0  0  0  0  0  0  0  0  0  0  0  0
  -19.0261    5.1335  -32.1963 C   0  0  0  0  0  0  0  0  0  0  0  0
  -18.2528    3.9283  -32.7075 C   0  0  0  0  0  0  0  0  0  0  0  0
  -18.3878    2.7573  -31.7047 C   0  0  0  0  0  0  0  0  0  0  0  0
  -17.8353    3.1035  -30.3915 N   0  0  0  0  0  0  0  0  0  0  0  0
  -16.4547    2.9188  -30.0457 C   0  0  0  0  0  0  0  0  0  0  0  0
  -15.8138    1.7324  -30.3872 C   0  0  0  0  0  0  0  0  0  0  0  0
  -14.4755    1.5658  -30.0463 C   0  0  0  0  0  0  0  0  0  0  0  0
  -13.6683    0.0424  -30.4895 Cl  0  0  0  0  0  0  0  0  0  0  0  0
  -15.7771    3.9308  -29.3727 C   0  0  0  0  0  0  0  0  0  0  0  0
  -14.4390    3.7535  -29.0371 C   0  0  0  0  0  0  0  0  0  0  0  0
  -13.7885    2.5712  -29.3735 C   0  0  0  0  0  0  0  0  0  0  0  0
   -8.4827    4.5767  -28.7747 H   0  0  0  0  0  0  0  0  0  0  0  0
  -10.1178    6.3995  -29.6220 H   0  0  0  0  0  0  0  0  0  0  0  0
  -10.2421    0.0100  -27.9249 H   0  0  0  0  0  0  0  0  0  0  0  0
  -18.2366    2.6891  -34.4413 H   0  0  0  0  0  0  0  0  0  0  0  0
  -19.8274    3.2311  -33.9631 H   0  0  0  0  0  0  0  0  0  0  0  0
  -19.1045    4.4032  -35.9732 H   0  0  0  0  0  0  0  0  0  0  0  0
  -17.6603    4.9443  -35.1518 H   0  0  0  0  0  0  0  0  0  0  0  0
  -20.3899    5.6244  -34.4291 H   0  0  0  0  0  0  0  0  0  0  0  0
  -19.3159    6.6145  -35.1591 H   0  0  0  0  0  0  0  0  0  0  0  0
  -19.4717    7.1078  -32.8505 H   0  0  0  0  0  0  0  0  0  0  0  0
  -17.8784    6.5461  -33.2969 H   0  0  0  0  0  0  0  0  0  0  0  0
  -20.0561    4.8715  -32.0730 H   0  0  0  0  0  0  0  0  0  0  0  0
  -18.6222    5.4447  -31.2555 H   0  0  0  0  0  0  0  0  0  0  0  0
  -17.2199    4.1888  -32.8087 H   0  0  0  0  0  0  0  0  0  0  0  0
  -17.8621    1.9085  -32.0895 H   0  0  0  0  0  0  0  0  0  0  0  0
  -19.4238    2.5144  -31.5922 H   0  0  0  0  0  0  0  0  0  0  0  0
  -18.4507    3.4871  -29.7029 H   0  0  0  0  0  0  0  0  0  0  0  0
  -16.3424    0.9593  -30.9046 H   0  0  0  0  0  0  0  0  0  0  0  0
  -16.2817    4.8386  -29.1154 H   0  0  0  0  0  0  0  0  0  0  0  0
  -13.9102    4.5267  -28.5200 H   0  0  0  0  0  0  0  0  0  0  0  0
  -12.4762    5.2608  -29.8186 H   0  0  0  0  0  0  0  0  0  0  0  0
  -12.6195    0.3125  -28.5139 H   0  0  0  0  0  0  0  0  0  0  0  0
  1  2  2  0  0  0  0
  1  9  1  0  0  0  0
  2  3  1  0  0  0  0
  2  4  1  0  0  0  0
  3  6  2  0  0  0  0
  4  5  1  0  0  0  0
  4  7  2  0  0  0  0
  5  6  1  0  0  0  0
  7  8  1  0  0  0  0
  8  9  2  0  0  0  0
 10 11  1  0  0  0  0
 10 15  1  0  0  0  0
 11 12  1  0  0  0  0
 12 13  1  0  0  0  0
 13 14  1  0  0  0  0
 14 15  1  0  0  0  0
 15 16  1  0  0  0  0
 16 17  1  0  0  0  0
 17 18  1  0  0  0  0
 18 19  2  0  0  0  0
 18 22  1  0  0  0  0
 19 20  1  0  0  0  0
 20 21  1  0  0  0  0
 20 24  2  0  0  0  0
 22 23  2  0  0  0  0
 23 24  1  0  0  0  0
 24  1  1  0  0  0  0
  5 25  1  0  0  0  0
  6 26  1  0  0  0  0
  8 27  1  0  0  0  0
 10 28  1  0  0  0  0
 10 29  1  0  0  0  0
 11 30  1  0  0  0  0
 11 31  1  0  0  0  0
 12 32  1  0  0  0  0
 12 33  1  0  0  0  0
 13 34  1  0  0  0  0
 13 35  1  0  0  0  0
 14 36  1  0  0  0  0
 14 37  1  0  0  0  0
 15 38  1  0  0  0  0
 16 39  1  0  0  0  0
 16 40  1  0  0  0  0
 17 41  1  0  0  0  0
 19 42  1  0  0  0  0
 22 43  1  0  0  0  0
 23 44  1  0  0  0  0
  3 45  1  0  0  0  0
  9 46  1  0  0  0  0
M  CHG  1  12   1
M  END
> <BIOSOLVEIT.HYDE_ATOM_SCORES [kJ/mol]>
# Atom-ID; Total; Rec-Desolv; Rec-IA; Lig-Desolv; Lig-IA
1;-0.3971;0.0000;0.0000;-0.3971;0.0000
2;-0.3720;0.0000;0.0000;-0.3720;0.0000
3;0.0834;1.3146;0.0000;-1.2312;0.0000
4;-0.7079;0.0000;0.0000;-0.7079;0.0000
5;-6.0599;5.9532;-10.4003;6.8161;-8.4288
6;-3.9172;-2.2520;0.0000;-1.6651;0.0000
7;-7.0951;2.9766;-8.4286;6.7856;-8.4286
8;-1.6544;-0.2439;0.0000;-1.4105;0.0000
9;-1.0957;-0.5144;0.0000;-0.5813;0.0000
10;-2.9090;-1.3545;0.0000;-1.5546;0.0000
11;-3.6329;-1.7654;0.0000;-1.8675;0.0000
12;0.4185;0.0000;0.0000;0.4185;0.0000
13;-1.2848;-0.4955;0.0000;-0.7893;0.0000
14;-0.5436;-0.2657;0.0000;-0.2779;0.0000
15;-3.4767;-2.7271;0.0000;-0.7496;0.0000
16;-1.6637;-1.1503;0.0000;-0.5134;0.0000
17;0.0008;0.0000;0.0000;0.0008;0.0000
18;-0.0589;0.0000;0.0000;-0.0589;0.0000
19;-0.3630;0.5379;0.0000;-0.9009;0.0000
20;-1.7885;-1.4238;0.0000;-0.3647;0.0000
21;-4.0094;-2.2965;0.0000;-1.7128;0.0000
22;0.0385;0.4299;0.0000;-0.3914;0.0000
23;-2.0900;-0.9486;0.0000;-1.1414;0.0000
24;-0.3451;0.0000;0.0000;-0.3451;0.0000

> <BIOSOLVEIT.HYDE_ESTIMATED_AFFINITY_LOWER_BOUNDARY [nM]>
2.620801

> <BIOSOLVEIT.HYDE_ESTIMATED_AFFINITY_UPPER_BOUNDARY [nM]>
260.392072

> <BIOSOLVEIT.HYDE_LIGAND_EFFICIENCY range: ++, +, 0, -, -->
+

> <BIOSOLVEIT.HYDE_LIGAND_LIPOPHILIC_EFFICIENCY range: ++, +, 0, -, -->
0

> <BIOSOLVEIT.INTER_CLASH range: red, yellow, green>
yellow

> <BIOSOLVEIT.INTRA_CLASH range: red, yellow, green>
red

> <BIOSOLVEIT.LOGP>
3.2686

> <BIOSOLVEIT.MOLECULAR_WEIGHT>
341.864

> <BIOSOLVEIT.MOLECULE_CHECKSUM>
LTQzLjI4Mzc7MS44MDM0OQ==

> <BIOSOLVEIT.TORSION_QUALITY range: red, yellow, green, not rotatable>
green

> <BIOSOLVEIT.TPSA>
57.32

$$$$
NWM61*
paSeeSAR  09302516223D 1   1.00000     0.00000     0
SeeSAR 13.0.1 paulakramer
 46 49  0  0  0  0            999 V2000
  -12.2221    2.1998  -29.2805 C   0  0  0  0  0  0  0  0  0  0  0  0
  -11.3875    3.3114  -29.2039 C   0  0  0  0  0  0  0  0  0  0  0  0
  -11.6081    4.6887  -29.5431 C   0  0  0  0  0  0  0  0  0  0  0  0
  -10.0986    3.1947  -28.7444 C   0  0  0  0  0  0  0  0  0  0  0  0
   -9.5327    4.4639  -28.7950 N   0  0  0  0  0  0  0  0  0  0  0  0
  -10.4568    5.3718  -29.2825 C   0  0  0  0  0  0  0  0  0  0  0  0
   -9.6500    1.9866  -28.3687 N   0  0  0  0  0  0  0  0  0  0  0  0
  -10.4191    0.8881  -28.4240 C   0  0  0  0  0  0  0  0  0  0  0  0
  -11.7298    0.9623  -28.8818 C   0  0  0  0  0  0  0  0  0  0  0  0
  -18.2643    4.2646  -34.5196 C   0  0  0  0  0  0  0  0  0  0  0  0
  -18.2436    5.7236  -34.9480 C   0  0  0  0  0  0  0  0  0  0  0  0
  -19.1568    6.5250  -34.1201 N   0  3  0  0  0  0  0  0  0  0  0  0
  -18.7975    6.4386  -32.6966 C   0  0  0  0  0  0  0  0  0  0  0  0
  -18.8352    4.9958  -32.2186 C   0  0  0  0  0  0  0  0  0  0  0  0
  -17.8739    4.1651  -33.0539 C   0  0  0  0  0  0  0  0  0  0  0  0
  -17.9229    2.6887  -32.5927 C   0  0  0  0  0  0  0  0  0  0  0  0
  -17.5779    2.5536  -31.1741 N   0  0  0  0  0  0  0  0  0  0  0  0
  -16.2268    2.4620  -30.6986 C   0  0  0  0  0  0  0  0  0  0  0  0
  -15.3874    1.4730  -31.2009 C   0  0  0  0  0  0  0  0  0  0  0  0
  -14.0804    1.3957  -30.7315 C   0  0  0  0  0  0  0  0  0  0  0  0
  -15.7767    3.3655  -29.7413 C   0  0  0  0  0  0  0  0  0  0  0  0
  -14.4674    3.2779  -29.2790 C   0  0  0  0  0  0  0  0  0  0  0  0
  -13.6194    2.2930  -29.7744 C   0  0  0  0  0  0  0  0  0  0  0  0
   -8.5976    4.6874  -28.5201 H   0  0  0  0  0  0  0  0  0  0  0  0
  -10.2969    6.4197  -29.4285 H   0  0  0  0  0  0  0  0  0  0  0  0
  -10.0195   -0.0544  -28.1128 H   0  0  0  0  0  0  0  0  0  0  0  0
  -17.5694    3.7079  -35.1132 H   0  0  0  0  0  0  0  0  0  0  0  0
  -19.2482    3.8664  -34.6551 H   0  0  0  0  0  0  0  0  0  0  0  0
  -18.5465    5.7927  -35.9719 H   0  0  0  0  0  0  0  0  0  0  0  0
  -17.2494    6.1054  -34.8436 H   0  0  0  0  0  0  0  0  0  0  0  0
  -20.0898    6.1865  -34.2423 H   0  0  0  0  0  0  0  0  0  0  0  0
  -19.1079    7.4803  -34.4116 H   0  0  0  0  0  0  0  0  0  0  0  0
  -19.4919    7.0167  -32.1236 H   0  0  0  0  0  0  0  0  0  0  0  0
  -17.8104    6.8283  -32.5594 H   0  0  0  0  0  0  0  0  0  0  0  0
  -19.8274    4.6097  -32.3254 H   0  0  0  0  0  0  0  0  0  0  0  0
  -18.5444    4.9524  -31.1898 H   0  0  0  0  0  0  0  0  0  0  0  0
  -16.8804    4.5415  -32.9272 H   0  0  0  0  0  0  0  0  0  0  0  0
  -17.2279    2.1201  -33.1745 H   0  0  0  0  0  0  0  0  0  0  0  0
  -18.9114    2.3094  -32.7470 H   0  0  0  0  0  0  0  0  0  0  0  0
  -18.3204    2.5237  -30.5049 H   0  0  0  0  0  0  0  0  0  0  0  0
  -15.7418    0.7821  -31.9370 H   0  0  0  0  0  0  0  0  0  0  0  0
  -16.4324    4.1220  -29.3635 H   0  0  0  0  0  0  0  0  0  0  0  0
  -14.1128    3.9682  -28.5424 H   0  0  0  0  0  0  0  0  0  0  0  0
  -12.5142    5.1050  -29.9310 H   0  0  0  0  0  0  0  0  0  0  0  0
  -12.3450    0.0880  -28.9263 H   0  0  0  0  0  0  0  0  0  0  0  0
  -13.4245    0.6398  -31.1099 H   0  0  0  0  0  0  0  0  0  0  0  0
  1  2  2  0  0  0  0
  1  9  1  0  0  0  0
  2  3  1  0  0  0  0
  2  4  1  0  0  0  0
  3  6  2  0  0  0  0
  4  5  1  0  0  0  0
  4  7  2  0  0  0  0
  5  6  1  0  0  0  0
  7  8  1  0  0  0  0
  8  9  2  0  0  0  0
 10 11  1  0  0  0  0
 10 15  1  0  0  0  0
 11 12  1  0  0  0  0
 12 13  1  0  0  0  0
 13 14  1  0  0  0  0
 14 15  1  0  0  0  0
 15 16  1  0  0  0  0
 16 17  1  0  0  0  0
 17 18  1  0  0  0  0
 18 19  2  0  0  0  0
 18 21  1  0  0  0  0
 19 20  1  0  0  0  0
 20 23  2  0  0  0  0
 21 22  2  0  0  0  0
 22 23  1  0  0  0  0
 23  1  1  0  0  0  0
  5 24  1  0  0  0  0
  6 25  1  0  0  0  0
  8 26  1  0  0  0  0
 10 27  1  0  0  0  0
 10 28  1  0  0  0  0
 11 29  1  0  0  0  0
 11 30  1  0  0  0  0
 12 31  1  0  0  0  0
 12 32  1  0  0  0  0
 13 33  1  0  0  0  0
 13 34  1  0  0  0  0
 14 35  1  0  0  0  0
 14 36  1  0  0  0  0
 15 37  1  0  0  0  0
 16 38  1  0  0  0  0
 16 39  1  0  0  0  0
 17 40  1  0  0  0  0
 19 41  1  0  0  0  0
 21 42  1  0  0  0  0
 22 43  1  0  0  0  0
  3 44  1  0  0  0  0
  9 45  1  0  0  0  0
 20 46  1  0  0  0  0
M  CHG  1  12   1
M  END
> <BIOSOLVEIT.HYDE_ATOM_SCORES [kJ/mol]>
# Atom-ID; Total; Rec-Desolv; Rec-IA; Lig-Desolv; Lig-IA
1;-0.3292;0.0000;0.0000;-0.3292;0.0000
2;-0.5226;0.0000;0.0000;-0.5226;0.0000
3;0.0721;1.3202;0.0000;-1.2481;0.0000
4;-4.1604;-3.2956;0.0000;-0.8648;0.0000
5;-7.4513;4.5567;-10.4001;6.8207;-8.4287
6;-2.8694;-1.0181;0.0000;-1.8513;0.0000
7;-3.7372;6.3426;-8.4288;6.7776;-8.4288
8;-1.7373;-0.2439;0.0000;-1.4934;0.0000
9;-2.5242;-1.6878;0.0000;-0.8364;0.0000
10;-3.3712;-1.6258;0.0000;-1.7454;0.0000
11;-3.5312;-1.8605;0.0000;-1.6707;0.0000
12;-1.0528;-1.1876;0.0000;0.1348;0.0000
13;-1.2171;-0.2328;0.0000;-0.9843;0.0000
14;-0.0237;0.0000;0.0000;-0.0237;0.0000
15;-3.6798;-3.0199;0.0000;-0.6599;0.0000
16;-3.1802;-1.9825;0.0000;-1.1977;0.0000
17;0.0000;0.0000;0.0000;0.0000;0.0000
18;-0.0185;0.0402;0.0000;-0.0587;0.0000
19;-2.0327;-0.6589;0.0000;-1.3738;0.0000
20;-3.8196;-2.4349;0.0000;-1.3847;0.0000
21;-0.2490;0.0371;0.0000;-0.2861;0.0000
22;-1.9104;-0.9486;0.0000;-0.9618;0.0000
23;-0.0418;0.0000;0.0000;-0.0418;0.0000

> <BIOSOLVEIT.HYDE_ESTIMATED_AFFINITY_LOWER_BOUNDARY [nM]>
0.432929

> <BIOSOLVEIT.HYDE_ESTIMATED_AFFINITY_UPPER_BOUNDARY [nM]>
43.014060

> <BIOSOLVEIT.HYDE_LIGAND_EFFICIENCY range: ++, +, 0, -, -->
+

> <BIOSOLVEIT.HYDE_LIGAND_LIPOPHILIC_EFFICIENCY range: ++, +, 0, -, -->
+

> <BIOSOLVEIT.INTER_CLASH range: red, yellow, green>
green

> <BIOSOLVEIT.INTRA_CLASH range: red, yellow, green>
green

> <BIOSOLVEIT.LOGP>
2.6152

> <BIOSOLVEIT.MOLECULAR_WEIGHT>
307.419

> <BIOSOLVEIT.MOLECULE_CHECKSUM>
LTQ3Ljc0NzQ7Mi4wNzU5Nw==

> <BIOSOLVEIT.TORSION_QUALITY range: red, yellow, green, not rotatable>
green

> <BIOSOLVEIT.TPSA>
57.32

$$$$
NWM74*
paSeeSAR  09302516223D 1   1.00000     0.00000     0
SeeSAR 13.0.1 paulakramer
 45 48  0  0  0  0            999 V2000
  -12.2923    2.2483  -29.1572 C   0  0  0  0  0  0  0  0  0  0  0  0
  -11.3999    3.3156  -29.1075 C   0  0  0  0  0  0  0  0  0  0  0  0
  -11.5766    4.7136  -29.3812 C   0  0  0  0  0  0  0  0  0  0  0  0
  -10.0873    3.1209  -28.7535 C   0  0  0  0  0  0  0  0  0  0  0  0
   -9.4643    4.3630  -28.8044 N   0  0  0  0  0  0  0  0  0  0  0  0
  -10.3762    5.3313  -29.1874 C   0  0  0  0  0  0  0  0  0  0  0  0
   -9.6725    1.8796  -28.4552 N   0  0  0  0  0  0  0  0  0  0  0  0
  -10.4974    0.8215  -28.4885 C   0  0  0  0  0  0  0  0  0  0  0  0
  -11.8337    0.9747  -28.8406 C   0  0  0  0  0  0  0  0  0  0  0  0
  -18.6970    3.6382  -34.1515 C   0  0  0  0  0  0  0  0  0  0  0  0
  -18.6449    4.8500  -35.0688 C   0  0  0  0  0  0  0  0  0  0  0  0
  -19.3234    6.0007  -34.4546 N   0  3  0  0  0  0  0  0  0  0  0  0
  -18.7123    6.3507  -33.1636 C   0  0  0  0  0  0  0  0  0  0  0  0
  -18.7704    5.1732  -32.2037 C   0  0  0  0  0  0  0  0  0  0  0  0
  -18.0485    3.9861  -32.8214 C   0  0  0  0  0  0  0  0  0  0  0  0
  -18.1219    2.7946  -31.8803 C   0  0  0  0  0  0  0  0  0  0  0  0
  -17.7515    2.9257  -30.6170 N   0  0  0  0  0  0  0  0  0  0  0  0
  -16.3748    2.7528  -30.2513 C   0  0  0  0  0  0  0  0  0  0  0  0
  -15.6022    1.8038  -30.9129 C   0  0  0  0  0  0  0  0  0  0  0  0
  -14.2693    1.6467  -30.5486 C   0  0  0  0  0  0  0  0  0  0  0  0
  -15.8329    3.5384  -29.2390 C   0  0  0  0  0  0  0  0  0  0  0  0
  -14.4984    3.3717  -28.8829 C   0  0  0  0  0  0  0  0  0  0  0  0
  -13.7167    2.4259  -29.5378 C   0  0  0  0  0  0  0  0  0  0  0  0
   -8.5011    4.5315  -28.5952 H   0  0  0  0  0  0  0  0  0  0  0  0
  -10.1757    6.3753  -29.3094 H   0  0  0  0  0  0  0  0  0  0  0  0
  -10.1228   -0.1500  -28.2415 H   0  0  0  0  0  0  0  0  0  0  0  0
  -18.1697    2.8245  -34.6041 H   0  0  0  0  0  0  0  0  0  0  0  0
  -19.7164    3.3565  -33.9891 H   0  0  0  0  0  0  0  0  0  0  0  0
  -19.1276    4.6109  -35.9933 H   0  0  0  0  0  0  0  0  0  0  0  0
  -17.6225    5.1047  -35.2557 H   0  0  0  0  0  0  0  0  0  0  0  0
  -20.2860    5.7720  -34.3087 H   0  0  0  0  0  0  0  0  0  0  0  0
  -19.2569    6.7856  -35.0706 H   0  0  0  0  0  0  0  0  0  0  0  0
  -19.2413    7.1775  -32.7376 H   0  0  0  0  0  0  0  0  0  0  0  0
  -17.6902    6.6247  -33.3218 H   0  0  0  0  0  0  0  0  0  0  0  0
  -19.7917    4.9134  -32.0179 H   0  0  0  0  0  0  0  0  0  0  0  0
  -18.2968    5.4396  -31.2820 H   0  0  0  0  0  0  0  0  0  0  0  0
  -17.0229    4.2433  -32.9855 H   0  0  0  0  0  0  0  0  0  0  0  0
  -18.4310    3.1453  -29.9170 H   0  0  0  0  0  0  0  0  0  0  0  0
  -16.0271    1.2038  -31.6904 H   0  0  0  0  0  0  0  0  0  0  0  0
  -16.4377    4.2653  -28.7384 H   0  0  0  0  0  0  0  0  0  0  0  0
  -14.0733    3.9711  -28.1051 H   0  0  0  0  0  0  0  0  0  0  0  0
  -12.4876    5.1866  -29.6833 H   0  0  0  0  0  0  0  0  0  0  0  0
  -12.4933    0.1326  -28.8671 H   0  0  0  0  0  0  0  0  0  0  0  0
  -13.6641    0.9206  -31.0498 H   0  0  0  0  0  0  0  0  0  0  0  0
  -18.5273    1.7043  -32.2951 O   0  0  0  0  0  0  0  0  0  0  0  0
  1  2  2  0  0  0  0
  1  9  1  0  0  0  0
  2  3  1  0  0  0  0
  2  4  1  0  0  0  0
  3  6  2  0  0  0  0
  4  5  1  0  0  0  0
  4  7  2  0  0  0  0
  5  6  1  0  0  0  0
  7  8  1  0  0  0  0
  8  9  2  0  0  0  0
 10 11  1  0  0  0  0
 10 15  1  0  0  0  0
 11 12  1  0  0  0  0
 12 13  1  0  0  0  0
 13 14  1  0  0  0  0
 14 15  1  0  0  0  0
 15 16  1  0  0  0  0
 16 17  1  0  0  0  0
 17 18  1  0  0  0  0
 18 19  2  0  0  0  0
 18 21  1  0  0  0  0
 19 20  1  0  0  0  0
 20 23  2  0  0  0  0
 21 22  2  0  0  0  0
 22 23  1  0  0  0  0
 23  1  1  0  0  0  0
  5 24  1  0  0  0  0
  6 25  1  0  0  0  0
  8 26  1  0  0  0  0
 10 27  1  0  0  0  0
 10 28  1  0  0  0  0
 11 29  1  0  0  0  0
 11 30  1  0  0  0  0
 12 31  1  0  0  0  0
 12 32  1  0  0  0  0
 13 33  1  0  0  0  0
 13 34  1  0  0  0  0
 14 35  1  0  0  0  0
 14 36  1  0  0  0  0
 15 37  1  0  0  0  0
 17 38  1  0  0  0  0
 19 39  1  0  0  0  0
 21 40  1  0  0  0  0
 22 41  1  0  0  0  0
  3 42  1  0  0  0  0
  9 43  1  0  0  0  0
 20 44  1  0  0  0  0
 16 45  2  0  0  0  0
M  CHG  1  12   1
M  END
> <BIOSOLVEIT.HYDE_ATOM_SCORES [kJ/mol]>
# Atom-ID; Total; Rec-Desolv; Rec-IA; Lig-Desolv; Lig-IA
1;-0.2988;0.0000;0.0000;-0.2988;0.0000
2;-0.5288;0.0000;0.0000;-0.5288;0.0000
3;0.2276;1.3258;0.0000;-1.0982;0.0000
4;-4.1582;-3.3660;0.0000;-0.7921;0.0000
5;-5.9631;6.0436;-10.4002;6.8223;-8.4288
6;-4.3190;-2.5050;0.0000;-1.8140;0.0000
7;-3.7519;6.3426;-8.4286;6.7626;-8.4286
8;-1.6219;-0.2439;0.0000;-1.3780;0.0000
9;-2.0424;-1.2828;0.0000;-0.7596;0.0000
10;-1.9611;-0.5567;0.0000;-1.4045;0.0000
11;-3.7807;-1.7654;0.0000;-2.0153;0.0000
12;0.3693;0.0000;0.0000;0.3693;0.0000
13;-1.5753;-0.6101;0.0000;-0.9651;0.0000
14;-0.5363;-0.2349;0.0000;-0.3014;0.0000
15;-3.4537;-2.6805;0.0000;-0.7732;0.0000
16;0.0000;0.0000;0.0000;0.0000;0.0000
17;0.0000;0.0000;0.0000;0.0000;0.0000
18;0.0893;0.1780;0.0000;-0.0887;0.0000
19;-1.4912;-0.2799;0.0000;-1.2113;0.0000
20;-3.6174;-2.3942;0.0000;-1.2232;0.0000
21;1.0881;1.3476;0.0000;-0.2595;0.0000
22;-2.7065;-1.5090;0.0000;-1.1975;0.0000
23;0.0000;0.0000;0.0000;0.0000;0.0000
45;-0.3866;-2.0351;0.0000;1.6484;0.0000

> <BIOSOLVEIT.HYDE_ESTIMATED_AFFINITY_LOWER_BOUNDARY [nM]>
7.199139

> <BIOSOLVEIT.HYDE_ESTIMATED_AFFINITY_UPPER_BOUNDARY [nM]>
715.277043

> <BIOSOLVEIT.HYDE_LIGAND_EFFICIENCY range: ++, +, 0, -, -->
+

> <BIOSOLVEIT.HYDE_LIGAND_LIPOPHILIC_EFFICIENCY range: ++, +, 0, -, -->
+

> <BIOSOLVEIT.INTER_CLASH range: red, yellow, green>
green

> <BIOSOLVEIT.INTRA_CLASH range: red, yellow, green>
green

> <BIOSOLVEIT.LOGP>
2.1418

> <BIOSOLVEIT.MOLECULAR_WEIGHT>
321.402

> <BIOSOLVEIT.MOLECULE_CHECKSUM>
LTQwLjc3ODc7MS42OTkxMQ==

> <BIOSOLVEIT.TORSION_QUALITY range: red, yellow, green, not rotatable>
yellow

> <BIOSOLVEIT.TPSA>
74.39

$$$$
NWM74
paSeeSAR  09302516223D 1   1.00000     0.00000     0
SeeSAR 13.0.1 paulakramer
 45 48  0  0  0  0            999 V2000
  -12.3697    2.4030  -29.0122 C   0  0  0  0  0  0  0  0  0  0  0  0
  -11.4399    3.4358  -29.0963 C   0  0  0  0  0  0  0  0  0  0  0  0
  -11.5769    4.8045  -29.5064 C   0  0  0  0  0  0  0  0  0  0  0  0
  -10.1245    3.2290  -28.7602 C   0  0  0  0  0  0  0  0  0  0  0  0
   -9.4610    4.4354  -28.9548 N   0  0  0  0  0  0  0  0  0  0  0  0
  -10.3505    5.3934  -29.4098 C   0  0  0  0  0  0  0  0  0  0  0  0
   -9.7435    2.0096  -28.3481 N   0  0  0  0  0  0  0  0  0  0  0  0
  -10.6050    0.9851  -28.2504 C   0  0  0  0  0  0  0  0  0  0  0  0
  -11.9455    1.1518  -28.5796 C   0  0  0  0  0  0  0  0  0  0  0  0
  -18.7263    3.4879  -33.9913 C   0  0  0  0  0  0  0  0  0  0  0  0
  -18.6651    4.6046  -35.0217 C   0  0  0  0  0  0  0  0  0  0  0  0
  -19.4221    5.7796  -34.5653 N   0  3  0  0  0  0  0  0  0  0  0  0
  -18.9029    6.2812  -33.2841 C   0  0  0  0  0  0  0  0  0  0  0  0
  -18.9739    5.2025  -32.2152 C   0  0  0  0  0  0  0  0  0  0  0  0
  -18.1721    3.9928  -32.6689 C   0  0  0  0  0  0  0  0  0  0  0  0
  -18.2568    2.8976  -31.6182 C   0  0  0  0  0  0  0  0  0  0  0  0
  -17.8452    3.1327  -30.3830 N   0  0  0  0  0  0  0  0  0  0  0  0
  -16.4646    2.9460  -30.0390 C   0  0  0  0  0  0  0  0  0  0  0  0
  -15.8153    1.7746  -30.4150 C   0  0  0  0  0  0  0  0  0  0  0  0
  -14.4773    1.6067  -30.0753 C   0  0  0  0  0  0  0  0  0  0  0  0
  -15.7956    3.9412  -29.3336 C   0  0  0  0  0  0  0  0  0  0  0  0
  -14.4573    3.7616  -28.9989 C   0  0  0  0  0  0  0  0  0  0  0  0
  -13.7982    2.5943  -29.3699 C   0  0  0  0  0  0  0  0  0  0  0  0
   -8.4865    4.5881  -28.7904 H   0  0  0  0  0  0  0  0  0  0  0  0
  -10.1181    6.4114  -29.6432 H   0  0  0  0  0  0  0  0  0  0  0  0
  -10.2566    0.0303  -27.9158 H   0  0  0  0  0  0  0  0  0  0  0  0
  -18.1427    2.6573  -34.3295 H   0  0  0  0  0  0  0  0  0  0  0  0
  -19.7423    3.1795  -33.8585 H   0  0  0  0  0  0  0  0  0  0  0  0
  -19.0823    4.2550  -35.9429 H   0  0  0  0  0  0  0  0  0  0  0  0
  -17.6438    4.8839  -35.1759 H   0  0  0  0  0  0  0  0  0  0  0  0
  -20.3823    5.5248  -34.4511 H   0  0  0  0  0  0  0  0  0  0  0  0
  -19.3484    6.5022  -35.2526 H   0  0  0  0  0  0  0  0  0  0  0  0
  -19.4872    7.1221  -32.9737 H   0  0  0  0  0  0  0  0  0  0  0  0
  -17.8842    6.5824  -33.4118 H   0  0  0  0  0  0  0  0  0  0  0  0
  -19.9940    4.9181  -32.0614 H   0  0  0  0  0  0  0  0  0  0  0  0
  -18.5667    5.5786  -31.3000 H   0  0  0  0  0  0  0  0  0  0  0  0
  -17.1490    4.2769  -32.8006 H   0  0  0  0  0  0  0  0  0  0  0  0
  -18.4961    3.4406  -29.6891 H   0  0  0  0  0  0  0  0  0  0  0  0
  -16.3375    1.0143  -30.9574 H   0  0  0  0  0  0  0  0  0  0  0  0
  -16.3064    4.8379  -29.0509 H   0  0  0  0  0  0  0  0  0  0  0  0
  -13.9350    4.5214  -28.4559 H   0  0  0  0  0  0  0  0  0  0  0  0
  -12.4800    5.2782  -29.8303 H   0  0  0  0  0  0  0  0  0  0  0  0
  -12.6342    0.3365  -28.5019 H   0  0  0  0  0  0  0  0  0  0  0  0
  -18.7098    1.7884  -31.9175 O   0  0  0  0  0  0  0  0  0  0  0  0
  -13.6269    0.1158  -30.5470 Cl  0  0  0  0  0  0  0  0  0  0  0  0
  1  2  2  0  0  0  0
  1  9  1  0  0  0  0
  2  3  1  0  0  0  0
  2  4  1  0  0  0  0
  3  6  2  0  0  0  0
  4  5  1  0  0  0  0
  4  7  2  0  0  0  0
  5  6  1  0  0  0  0
  7  8  1  0  0  0  0
  8  9  2  0  0  0  0
 10 11  1  0  0  0  0
 10 15  1  0  0  0  0
 11 12  1  0  0  0  0
 12 13  1  0  0  0  0
 13 14  1  0  0  0  0
 14 15  1  0  0  0  0
 15 16  1  0  0  0  0
 16 17  1  0  0  0  0
 17 18  1  0  0  0  0
 18 19  2  0  0  0  0
 18 21  1  0  0  0  0
 19 20  1  0  0  0  0
 20 23  2  0  0  0  0
 21 22  2  0  0  0  0
 22 23  1  0  0  0  0
 23  1  1  0  0  0  0
  5 24  1  0  0  0  0
  6 25  1  0  0  0  0
  8 26  1  0  0  0  0
 10 27  1  0  0  0  0
 10 28  1  0  0  0  0
 11 29  1  0  0  0  0
 11 30  1  0  0  0  0
 12 31  1  0  0  0  0
 12 32  1  0  0  0  0
 13 33  1  0  0  0  0
 13 34  1  0  0  0  0
 14 35  1  0  0  0  0
 14 36  1  0  0  0  0
 15 37  1  0  0  0  0
 17 38  1  0  0  0  0
 19 39  1  0  0  0  0
 21 40  1  0  0  0  0
 22 41  1  0  0  0  0
  3 42  1  0  0  0  0
  9 43  1  0  0  0  0
 16 44  2  0  0  0  0
 20 45  1  0  0  0  0
M  CHG  1  12   1
M  END
> <BIOSOLVEIT.HYDE_ATOM_SCORES [kJ/mol]>
# Atom-ID; Total; Rec-Desolv; Rec-IA; Lig-Desolv; Lig-IA
1;-0.4105;0.0000;0.0000;-0.4105;0.0000
2;-0.3704;0.0000;0.0000;-0.3704;0.0000
3;0.0930;1.3146;0.0000;-1.2216;0.0000
4;-0.7079;0.0000;0.0000;-0.7079;0.0000
5;-7.2938;4.7192;-10.4003;6.8161;-8.4288
6;-2.6460;-1.0181;0.0000;-1.6279;0.0000
7;-3.7290;6.3426;-8.4286;6.7856;-8.4286
8;-5.0644;-3.6099;0.0000;-1.4545;0.0000
9;-1.0811;-0.5144;0.0000;-0.5667;0.0000
10;-2.8345;-1.3089;0.0000;-1.5256;0.0000
11;-3.8301;-1.7081;0.0000;-2.1221;0.0000
12;0.4869;0.0000;0.0000;0.4869;0.0000
13;-1.2888;-0.4994;0.0000;-0.7893;0.0000
14;-0.5282;-0.2503;0.0000;-0.2779;0.0000
15;-3.3067;-2.5427;0.0000;-0.7640;0.0000
16;0.0000;0.0000;0.0000;0.0000;0.0000
17;0.0000;0.0000;0.0000;0.0000;0.0000
18;-0.0578;0.0000;0.0000;-0.0578;0.0000
19;-0.4578;0.4891;0.0000;-0.9469;0.0000
20;-1.7537;-1.3882;0.0000;-0.3655;0.0000
21;0.0999;0.5100;0.0000;-0.4101;0.0000
22;-2.1626;-1.0247;0.0000;-1.1379;0.0000
23;-0.3712;0.0000;0.0000;-0.3712;0.0000
44;0.5396;-1.1418;0.0000;1.6814;0.0000
45;-4.0337;-2.2965;0.0000;-1.7371;0.0000

> <BIOSOLVEIT.HYDE_ESTIMATED_AFFINITY_LOWER_BOUNDARY [nM]>
6.403524

> <BIOSOLVEIT.HYDE_ESTIMATED_AFFINITY_UPPER_BOUNDARY [nM]>
636.227936

> <BIOSOLVEIT.HYDE_LIGAND_EFFICIENCY range: ++, +, 0, -, -->
0

> <BIOSOLVEIT.HYDE_LIGAND_LIPOPHILIC_EFFICIENCY range: ++, +, 0, -, -->
0

> <BIOSOLVEIT.INTER_CLASH range: red, yellow, green>
yellow

> <BIOSOLVEIT.INTRA_CLASH range: red, yellow, green>
red

> <BIOSOLVEIT.LOGP>
2.7952

> <BIOSOLVEIT.MOLECULAR_WEIGHT>
355.847

> <BIOSOLVEIT.MOLECULE_CHECKSUM>
LTQxLjA2OTsxLjY0Mjc2

> <BIOSOLVEIT.TORSION_QUALITY range: red, yellow, green, not rotatable>
yellow

> <BIOSOLVEIT.TPSA>
74.39

$$$$
NWM72
paSeeSAR  09302516223D 1   1.00000     0.00000     0
SeeSAR 13.0.1 paulakramer
 44 47  0  0  0  0            999 V2000
  -12.3069    2.3228  -29.0439 C   0  0  0  0  0  0  0  0  0  0  0  0
  -11.4298    3.4017  -29.1064 C   0  0  0  0  0  0  0  0  0  0  0  0
  -11.5987    4.7745  -29.4947 C   0  0  0  0  0  0  0  0  0  0  0  0
  -10.1058    3.2378  -28.7587 C   0  0  0  0  0  0  0  0  0  0  0  0
   -9.4774    4.4669  -28.9268 N   0  0  0  0  0  0  0  0  0  0  0  0
  -10.3938    5.4022  -29.3764 C   0  0  0  0  0  0  0  0  0  0  0  0
   -9.7034    2.0208  -28.3649 N   0  0  0  0  0  0  0  0  0  0  0  0
  -10.5566    0.9870  -28.3076 C   0  0  0  0  0  0  0  0  0  0  0  0
  -11.8484    1.1264  -28.6433 N   0  0  0  0  0  0  0  0  0  0  0  0
  -18.6766    3.5446  -34.0632 C   0  0  0  0  0  0  0  0  0  0  0  0
  -18.6219    4.7176  -35.0295 C   0  0  0  0  0  0  0  0  0  0  0  0
  -19.3414    5.8782  -34.4847 N   0  3  0  0  0  0  0  0  0  0  0  0
  -18.7757    6.2953  -33.1928 C   0  0  0  0  0  0  0  0  0  0  0  0
  -18.8385    5.1582  -32.1856 C   0  0  0  0  0  0  0  0  0  0  0  0
  -18.0748    3.9618  -32.7312 C   0  0  0  0  0  0  0  0  0  0  0  0
  -18.1519    2.8097  -31.7426 C   0  0  0  0  0  0  0  0  0  0  0  0
  -17.7713    2.9879  -30.4882 N   0  0  0  0  0  0  0  0  0  0  0  0
  -16.3935    2.8173  -30.1252 C   0  0  0  0  0  0  0  0  0  0  0  0
  -15.7717    1.5926  -30.3455 C   0  0  0  0  0  0  0  0  0  0  0  0
  -14.4360    1.4410  -29.9891 C   0  0  0  0  0  0  0  0  0  0  0  0
  -15.6996    3.8813  -29.5579 C   0  0  0  0  0  0  0  0  0  0  0  0
  -14.3639    3.7173  -29.2050 C   0  0  0  0  0  0  0  0  0  0  0  0
  -13.7323    2.4972  -29.4208 C   0  0  0  0  0  0  0  0  0  0  0  0
   -8.5101    4.6477  -28.7496 H   0  0  0  0  0  0  0  0  0  0  0  0
  -10.1930    6.4309  -29.5919 H   0  0  0  0  0  0  0  0  0  0  0  0
  -10.1993    0.0306  -27.9874 H   0  0  0  0  0  0  0  0  0  0  0  0
  -18.1200    2.7240  -34.4655 H   0  0  0  0  0  0  0  0  0  0  0  0
  -19.6945    3.2482  -33.9182 H   0  0  0  0  0  0  0  0  0  0  0  0
  -19.0722    4.4294  -35.9564 H   0  0  0  0  0  0  0  0  0  0  0  0
  -17.5999    4.9859  -35.1977 H   0  0  0  0  0  0  0  0  0  0  0  0
  -20.3030    5.6354  -34.3567 H   0  0  0  0  0  0  0  0  0  0  0  0
  -19.2725    6.6377  -35.1315 H   0  0  0  0  0  0  0  0  0  0  0  0
  -19.3335    7.1278  -32.8177 H   0  0  0  0  0  0  0  0  0  0  0  0
  -17.7550    6.5841  -33.3333 H   0  0  0  0  0  0  0  0  0  0  0  0
  -19.8592    4.8847  -32.0181 H   0  0  0  0  0  0  0  0  0  0  0  0
  -18.3976    5.4732  -31.2629 H   0  0  0  0  0  0  0  0  0  0  0  0
  -17.0501    4.2338  -32.8767 H   0  0  0  0  0  0  0  0  0  0  0  0
  -18.4438    3.2415  -29.7929 H   0  0  0  0  0  0  0  0  0  0  0  0
  -16.3130    0.7795  -30.7824 H   0  0  0  0  0  0  0  0  0  0  0  0
  -16.1894    4.8184  -29.3943 H   0  0  0  0  0  0  0  0  0  0  0  0
  -13.8225    4.5300  -28.7674 H   0  0  0  0  0  0  0  0  0  0  0  0
  -12.5122    5.2264  -29.8205 H   0  0  0  0  0  0  0  0  0  0  0  0
  -18.5698    1.7074  -32.1105 O   0  0  0  0  0  0  0  0  0  0  0  0
  -13.6206   -0.1175  -30.2627 Cl  0  0  0  0  0  0  0  0  0  0  0  0
  1  2  2  0  0  0  0
  1  9  1  0  0  0  0
  2  3  1  0  0  0  0
  2  4  1  0  0  0  0
  3  6  2  0  0  0  0
  4  5  1  0  0  0  0
  4  7  2  0  0  0  0
  5  6  1  0  0  0  0
  7  8  1  0  0  0  0
  8  9  2  0  0  0  0
 10 11  1  0  0  0  0
 10 15  1  0  0  0  0
 11 12  1  0  0  0  0
 12 13  1  0  0  0  0
 13 14  1  0  0  0  0
 14 15  1  0  0  0  0
 15 16  1  0  0  0  0
 16 17  1  0  0  0  0
 17 18  1  0  0  0  0
 18 19  2  0  0  0  0
 18 21  1  0  0  0  0
 19 20  1  0  0  0  0
 20 23  2  0  0  0  0
 21 22  2  0  0  0  0
 22 23  1  0  0  0  0
 23  1  1  0  0  0  0
  5 24  1  0  0  0  0
  6 25  1  0  0  0  0
  8 26  1  0  0  0  0
 10 27  1  0  0  0  0
 10 28  1  0  0  0  0
 11 29  1  0  0  0  0
 11 30  1  0  0  0  0
 12 31  1  0  0  0  0
 12 32  1  0  0  0  0
 13 33  1  0  0  0  0
 13 34  1  0  0  0  0
 14 35  1  0  0  0  0
 14 36  1  0  0  0  0
 15 37  1  0  0  0  0
 17 38  1  0  0  0  0
 19 39  1  0  0  0  0
 21 40  1  0  0  0  0
 22 41  1  0  0  0  0
  3 42  1  0  0  0  0
 16 43  2  0  0  0  0
 20 44  1  0  0  0  0
M  CHG  1  12   1
M  END
> <BIOSOLVEIT.HYDE_ATOM_SCORES [kJ/mol]>
# Atom-ID; Total; Rec-Desolv; Rec-IA; Lig-Desolv; Lig-IA
1;-0.5515;0.0000;0.0000;-0.5515;0.0000
2;-0.4390;0.0000;0.0000;-0.4390;0.0000
3;0.1375;1.3146;0.0000;-1.1771;0.0000
4;-0.7482;0.0000;0.0000;-0.7482;0.0000
5;-7.2844;4.7192;-10.4002;6.8254;-8.4288
6;-2.6962;-1.0181;0.0000;-1.6781;0.0000
7;-7.1062;2.9766;-8.4287;6.7745;-8.4287
8;-1.8764;-0.2439;0.0000;-1.6326;0.0000
9;-0.4772;-0.4119;0.0000;-0.0653;0.0000
10;-2.0752;-0.6390;0.0000;-1.4362;0.0000
11;-3.7986;-1.7654;0.0000;-2.0332;0.0000
12;0.3182;0.0000;0.0000;0.3182;0.0000
13;-1.3968;-0.4966;0.0000;-0.9002;0.0000
14;-0.5282;-0.2503;0.0000;-0.2779;0.0000
15;-3.5822;-2.7731;0.0000;-0.8091;0.0000
16;0.0000;0.0000;0.0000;0.0000;0.0000
17;0.0000;0.0000;0.0000;0.0000;0.0000
18;-0.0580;0.0000;0.0000;-0.0580;0.0000
19;-0.2111;0.6734;0.0000;-0.8844;0.0000
20;-0.5282;-0.1991;0.0000;-0.3291;0.0000
21;-0.4216;0.0676;0.0000;-0.4892;0.0000
22;-1.9653;-0.8921;0.0000;-1.0732;0.0000
23;-1.6811;-1.2706;0.0000;-0.4105;0.0000
43;-0.1946;-1.8617;0.0000;1.6671;0.0000
44;-3.7836;-2.2965;0.0000;-1.4871;0.0000

> <BIOSOLVEIT.HYDE_ESTIMATED_AFFINITY_LOWER_BOUNDARY [nM]>
5.815353

> <BIOSOLVEIT.HYDE_ESTIMATED_AFFINITY_UPPER_BOUNDARY [nM]>
577.789730

> <BIOSOLVEIT.HYDE_LIGAND_EFFICIENCY range: ++, +, 0, -, -->
0

> <BIOSOLVEIT.HYDE_LIGAND_LIPOPHILIC_EFFICIENCY range: ++, +, 0, -, -->
+

> <BIOSOLVEIT.INTER_CLASH range: red, yellow, green>
green

> <BIOSOLVEIT.INTRA_CLASH range: red, yellow, green>
red

> <BIOSOLVEIT.LOGP>
2.1902

> <BIOSOLVEIT.MOLECULAR_WEIGHT>
356.835

> <BIOSOLVEIT.MOLECULE_CHECKSUM>
LTQxLjMwNzk7MS42NTIzMQ==

> <BIOSOLVEIT.TORSION_QUALITY range: red, yellow, green, not rotatable>
yellow

> <BIOSOLVEIT.TPSA>
87.28

$$$$
NWM75
paSeeSAR  09302516223D 1   1.00000     0.00000     0
SeeSAR 13.0.1 paulakramer
 44 47  0  0  0  0            999 V2000
  -12.2676    2.2182  -29.1396 C   0  0  0  0  0  0  0  0  0  0  0  0
  -11.4054    3.3104  -29.1051 C   0  0  0  0  0  0  0  0  0  0  0  0
  -11.5896    4.7074  -29.3849 C   0  0  0  0  0  0  0  0  0  0  0  0
  -10.0833    3.1371  -28.7548 C   0  0  0  0  0  0  0  0  0  0  0  0
   -9.4708    4.3839  -28.8165 N   0  0  0  0  0  0  0  0  0  0  0  0
  -10.3953    5.3398  -29.2018 C   0  0  0  0  0  0  0  0  0  0  0  0
   -9.6679    1.8979  -28.4541 N   0  0  0  0  0  0  0  0  0  0  0  0
  -10.5069    0.8515  -28.4901 C   0  0  0  0  0  0  0  0  0  0  0  0
  -11.7966    1.0000  -28.8298 N   0  0  0  0  0  0  0  0  0  0  0  0
  -18.7174    3.6047  -34.1211 C   0  0  0  0  0  0  0  0  0  0  0  0
  -18.6555    4.8012  -35.0576 C   0  0  0  0  0  0  0  0  0  0  0  0
  -19.2778    5.9816  -34.4404 N   0  3  0  0  0  0  0  0  0  0  0  0
  -18.6160    6.3299  -33.1740 C   0  0  0  0  0  0  0  0  0  0  0  0
  -18.6817    5.1683  -32.1952 C   0  0  0  0  0  0  0  0  0  0  0  0
  -18.0172    3.9500  -32.8168 C   0  0  0  0  0  0  0  0  0  0  0  0
  -18.0992    2.7749  -31.8563 C   0  0  0  0  0  0  0  0  0  0  0  0
  -17.7242    2.9231  -30.5963 N   0  0  0  0  0  0  0  0  0  0  0  0
  -16.3480    2.7433  -30.2314 C   0  0  0  0  0  0  0  0  0  0  0  0
  -15.5796    1.7932  -30.8961 C   0  0  0  0  0  0  0  0  0  0  0  0
  -14.2472    1.6293  -30.5324 C   0  0  0  0  0  0  0  0  0  0  0  0
  -15.8029    3.5232  -29.2165 C   0  0  0  0  0  0  0  0  0  0  0  0
  -14.4689    3.3500  -28.8614 C   0  0  0  0  0  0  0  0  0  0  0  0
  -13.6913    2.4030  -29.5195 C   0  0  0  0  0  0  0  0  0  0  0  0
   -8.5082    4.5630  -28.6134 H   0  0  0  0  0  0  0  0  0  0  0  0
  -10.2069    6.3850  -29.3321 H   0  0  0  0  0  0  0  0  0  0  0  0
  -10.1395   -0.1225  -28.2426 H   0  0  0  0  0  0  0  0  0  0  0  0
  -18.2306    2.7682  -34.5774 H   0  0  0  0  0  0  0  0  0  0  0  0
  -19.7397    3.3581  -33.9235 H   0  0  0  0  0  0  0  0  0  0  0  0
  -19.1739    4.5648  -35.9632 H   0  0  0  0  0  0  0  0  0  0  0  0
  -17.6319    5.0202  -35.2794 H   0  0  0  0  0  0  0  0  0  0  0  0
  -20.2421    5.7861  -34.2616 H   0  0  0  0  0  0  0  0  0  0  0  0
  -19.2056    6.7552  -35.0698 H   0  0  0  0  0  0  0  0  0  0  0  0
  -19.1051    7.1791  -32.7444 H   0  0  0  0  0  0  0  0  0  0  0  0
  -17.5911    6.5685  -33.3675 H   0  0  0  0  0  0  0  0  0  0  0  0
  -19.7044    4.9442  -31.9744 H   0  0  0  0  0  0  0  0  0  0  0  0
  -18.1715    5.4322  -31.2924 H   0  0  0  0  0  0  0  0  0  0  0  0
  -16.9897    4.1718  -33.0161 H   0  0  0  0  0  0  0  0  0  0  0  0
  -18.3997    3.1604  -29.8982 H   0  0  0  0  0  0  0  0  0  0  0  0
  -16.0071    1.1973  -31.6752 H   0  0  0  0  0  0  0  0  0  0  0  0
  -16.4049    4.2506  -28.7130 H   0  0  0  0  0  0  0  0  0  0  0  0
  -14.0411    3.9454  -28.0820 H   0  0  0  0  0  0  0  0  0  0  0  0
  -12.5058    5.1716  -29.6851 H   0  0  0  0  0  0  0  0  0  0  0  0
  -18.5159    1.6818  -32.2521 O   0  0  0  0  0  0  0  0  0  0  0  0
  -13.6452    0.9022  -31.0361 H   0  0  0  0  0  0  0  0  0  0  0  0
  1  2  2  0  0  0  0
  1  9  1  0  0  0  0
  2  3  1  0  0  0  0
  2  4  1  0  0  0  0
  3  6  2  0  0  0  0
  4  5  1  0  0  0  0
  4  7  2  0  0  0  0
  5  6  1  0  0  0  0
  7  8  1  0  0  0  0
  8  9  2  0  0  0  0
 10 11  1  0  0  0  0
 10 15  1  0  0  0  0
 11 12  1  0  0  0  0
 12 13  1  0  0  0  0
 13 14  1  0  0  0  0
 14 15  1  0  0  0  0
 15 16  1  0  0  0  0
 16 17  1  0  0  0  0
 17 18  1  0  0  0  0
 18 19  2  0  0  0  0
 18 21  1  0  0  0  0
 19 20  1  0  0  0  0
 20 23  2  0  0  0  0
 21 22  2  0  0  0  0
 22 23  1  0  0  0  0
 23  1  1  0  0  0  0
  5 24  1  0  0  0  0
  6 25  1  0  0  0  0
  8 26  1  0  0  0  0
 10 27  1  0  0  0  0
 10 28  1  0  0  0  0
 11 29  1  0  0  0  0
 11 30  1  0  0  0  0
 12 31  1  0  0  0  0
 12 32  1  0  0  0  0
 13 33  1  0  0  0  0
 13 34  1  0  0  0  0
 14 35  1  0  0  0  0
 14 36  1  0  0  0  0
 15 37  1  0  0  0  0
 17 38  1  0  0  0  0
 19 39  1  0  0  0  0
 21 40  1  0  0  0  0
 22 41  1  0  0  0  0
  3 42  1  0  0  0  0
 16 43  2  0  0  0  0
 20 44  1  0  0  0  0
M  CHG  1  12   1
M  END
> <BIOSOLVEIT.HYDE_ATOM_SCORES [kJ/mol]>
# Atom-ID; Total; Rec-Desolv; Rec-IA; Lig-Desolv; Lig-IA
1;-0.4698;0.0000;0.0000;-0.4698;0.0000
2;-3.8875;-3.3660;0.0000;-0.5214;0.0000
3;0.2243;1.3258;0.0000;-1.1015;0.0000
4;-0.7935;0.0000;0.0000;-0.7935;0.0000
5;-5.9768;6.0436;-10.4002;6.8087;-8.4288
6;-4.2817;-2.5050;0.0000;-1.7767;0.0000
7;-3.7616;6.3426;-8.4286;6.7529;-8.4286
8;-1.8272;-0.2439;0.0000;-1.5834;0.0000
9;-1.3132;-1.1910;0.0000;-0.1222;0.0000
10;-1.9647;-0.5567;0.0000;-1.4080;0.0000
11;-3.7299;-1.7239;0.0000;-2.0060;0.0000
12;0.4133;0.0000;0.0000;0.4133;0.0000
13;-1.6595;-0.6855;0.0000;-0.9739;0.0000
14;-0.5282;-0.2503;0.0000;-0.2779;0.0000
15;-3.4191;-2.6805;0.0000;-0.7385;0.0000
16;0.0000;0.0000;0.0000;0.0000;0.0000
17;0.0000;0.0000;0.0000;0.0000;0.0000
18;0.1163;0.2047;0.0000;-0.0883;0.0000
19;-1.4289;-0.2799;0.0000;-1.1490;0.0000
20;-3.5651;-2.3734;0.0000;-1.1917;0.0000
21;1.1967;1.4557;0.0000;-0.2591;0.0000
22;-2.7367;-1.5090;0.0000;-1.2277;0.0000
23;0.0000;0.0000;0.0000;0.0000;0.0000
43;-0.3410;-1.9936;0.0000;1.6526;0.0000

> <BIOSOLVEIT.HYDE_ESTIMATED_AFFINITY_LOWER_BOUNDARY [nM]>
9.490344

> <BIOSOLVEIT.HYDE_ESTIMATED_AFFINITY_UPPER_BOUNDARY [nM]>
942.921774

> <BIOSOLVEIT.HYDE_LIGAND_EFFICIENCY range: ++, +, 0, -, -->
0

> <BIOSOLVEIT.HYDE_LIGAND_LIPOPHILIC_EFFICIENCY range: ++, +, 0, -, -->
+

> <BIOSOLVEIT.INTER_CLASH range: red, yellow, green>
green

> <BIOSOLVEIT.INTRA_CLASH range: red, yellow, green>
green

> <BIOSOLVEIT.LOGP>
1.5368

> <BIOSOLVEIT.MOLECULAR_WEIGHT>
322.39

> <BIOSOLVEIT.MOLECULE_CHECKSUM>
LTQwLjA5Mzc7MS42NzA1Nw==

> <BIOSOLVEIT.TORSION_QUALITY range: red, yellow, green, not rotatable>
yellow

> <BIOSOLVEIT.TPSA>
87.28

$$$$
