L037003080000000000000000
paSeeSAR  09302516483D 1   1.00000     0.00000     0
SeeSAR 13.0.1 paulakramer
 45 47  0  0  0  0            999 V2000
  -14.6310    2.3473  -30.1820 C   0  0  0  0  0  0  0  0  0  0  0  0
  -12.7275    1.1840  -29.4813 C   0  0  0  0  0  0  0  0  0  0  0  0
  -13.3295    2.4017  -29.7003 C   0  0  0  0  0  0  0  0  0  0  0  0
  -11.2543    3.1876  -28.9370 C   0  0  0  0  0  0  0  0  0  0  0  0
  -12.4957    3.5347  -29.3914 C   0  0  0  0  0  0  0  0  0  0  0  0
  -10.1617    4.1064  -28.5263 C   0  0  0  0  0  0  0  0  0  0  0  0
  -15.2391    1.1176  -30.4117 C   0  0  0  0  0  0  0  0  0  0  0  0
  -14.5663   -0.0754  -30.1677 C   0  0  0  0  0  0  0  0  0  0  0  0
  -13.2693   -0.0716  -29.6898 C   0  0  0  0  0  0  0  0  0  0  0  0
  -11.1361    1.4697  -28.8926 S   0  0  0  0  0  0  0  0  0  0  0  0
   -8.9492    3.5967  -28.0781 O   0  0  0  0  0  0  0  0  0  0  0  0
  -10.3272    5.3531  -28.5835 O   0  0  0  0  0  0  0  0  0  0  0  0
  -17.5128    4.6318  -30.9241 C   0  0  0  0  0  0  0  0  0  0  0  0
  -18.1785    3.4365  -33.9407 C   0  0  0  0  0  0  0  0  0  0  0  0
  -19.6909    4.9615  -35.2461 C   0  0  0  0  0  0  0  0  0  0  0  0
  -15.4140    3.5775  -30.4663 C   0  0  0  0  0  0  0  0  0  0  0  0
  -14.7624    4.8047  -30.5362 C   0  0  0  0  0  0  0  0  0  0  0  0
  -15.5015    5.9529  -30.8026 C   0  0  0  0  0  0  0  0  0  0  0  0
  -16.8758    5.8659  -30.9969 C   0  0  0  0  0  0  0  0  0  0  0  0
  -18.7707    4.8539  -34.0191 C   0  0  0  0  0  0  0  0  0  0  0  0
  -17.6269    5.8756  -34.1414 C   0  0  0  0  0  0  0  0  0  0  0  0
  -16.7878    3.4752  -30.6574 C   0  0  0  0  0  0  0  0  0  0  0  0
  -17.5800    6.9625  -31.2522 F   0  0  0  0  0  0  0  0  0  0  0  0
  -18.9314    4.5521  -31.1251 N   0  0  0  0  0  0  0  0  0  0  0  0
  -19.9157    6.6901  -32.3812 O   0  0  0  0  0  0  0  0  0  0  0  0
  -21.0767    4.5664  -32.6436 O   0  0  0  0  0  0  0  0  0  0  0  0
  -19.7215    5.2070  -32.5277 S   0  0  0  0  0  0  0  0  0  0  0  0
  -12.8167    4.5489  -29.5065 H   0  0  0  0  0  0  0  0  0  0  0  0
  -16.2423    1.0886  -30.7827 H   0  0  0  0  0  0  0  0  0  0  0  0
  -15.0588   -1.0072  -30.3522 H   0  0  0  0  0  0  0  0  0  0  0  0
  -12.7252   -0.9723  -29.4957 H   0  0  0  0  0  0  0  0  0  0  0  0
  -17.5386    3.3640  -33.0862 H   0  0  0  0  0  0  0  0  0  0  0  0
  -18.9712    2.7230  -33.8542 H   0  0  0  0  0  0  0  0  0  0  0  0
  -17.6137    3.2364  -34.8272 H   0  0  0  0  0  0  0  0  0  0  0  0
  -20.1016    5.9482  -35.2985 H   0  0  0  0  0  0  0  0  0  0  0  0
  -19.1270    4.7624  -36.1334 H   0  0  0  0  0  0  0  0  0  0  0  0
  -20.4845    4.2490  -35.1604 H   0  0  0  0  0  0  0  0  0  0  0  0
  -13.7047    4.8648  -30.3869 H   0  0  0  0  0  0  0  0  0  0  0  0
  -15.0125    6.9030  -30.8579 H   0  0  0  0  0  0  0  0  0  0  0  0
  -18.0352    6.8631  -34.1962 H   0  0  0  0  0  0  0  0  0  0  0  0
  -16.9886    5.8005  -33.2859 H   0  0  0  0  0  0  0  0  0  0  0  0
  -17.0615    5.6737  -35.0271 H   0  0  0  0  0  0  0  0  0  0  0  0
  -17.2773    2.5255  -30.6003 H   0  0  0  0  0  0  0  0  0  0  0  0
  -19.4890    4.1006  -30.4285 H   0  0  0  0  0  0  0  0  0  0  0  0
   -8.1884    4.2156  -27.8825 H   0  0  0  0  0  0  0  0  0  0  0  0
  1  3  2  0  0  0  0
  1  7  1  0  0  0  0
  2  3  1  0  0  0  0
  2  9  2  0  0  0  0
  2 10  1  0  0  0  0
  3  5  1  0  0  0  0
  4  5  2  0  0  0  0
  4  6  1  0  0  0  0
  4 10  1  0  0  0  0
  6 11  1  0  0  0  0
  6 12  2  0  0  0  0
  7  8  2  0  0  0  0
  8  9  1  0  0  0  0
 13 19  2  0  0  0  0
 13 22  1  0  0  0  0
 13 24  1  0  0  0  0
 14 20  1  0  0  0  0
 15 20  1  0  0  0  0
 16 17  1  0  0  0  0
 16 22  2  0  0  0  0
 17 18  2  0  0  0  0
 18 19  1  0  0  0  0
 19 23  1  0  0  0  0
 20 21  1  0  0  0  0
 20 27  1  0  0  0  0
 24 27  1  0  0  0  0
 25 27  2  0  0  0  0
 26 27  2  0  0  0  0
 16  1  1  0  0  0  0
  5 28  1  0  0  0  0
  7 29  1  0  0  0  0
  8 30  1  0  0  0  0
  9 31  1  0  0  0  0
 24 44  1  0  0  0  0
 14 32  1  0  0  0  0
 14 33  1  0  0  0  0
 14 34  1  0  0  0  0
 15 35  1  0  0  0  0
 15 36  1  0  0  0  0
 15 37  1  0  0  0  0
 17 38  1  0  0  0  0
 18 39  1  0  0  0  0
 21 40  1  0  0  0  0
 21 41  1  0  0  0  0
 21 42  1  0  0  0  0
 22 43  1  0  0  0  0
 11 45  1  0  0  0  0
M  END
> <BIOSOLVEIT.HYDE_ATOM_SCORES [kJ/mol]>
# Atom-ID; Total; Rec-Desolv; Rec-IA; Lig-Desolv; Lig-IA
1;-0.3235;0.0000;0.0000;-0.3235;0.0000
2;-0.5050;-0.2068;0.0000;-0.2981;0.0000
3;-1.7827;-1.3623;0.0000;-0.4204;0.0000
4;-3.8255;-3.2576;0.0000;-0.5680;0.0000
5;-2.0642;-0.7610;0.0000;-1.3032;0.0000
6;-2.9917;-2.1941;0.0000;-0.7976;0.0000
7;-0.2652;0.6379;0.0000;-0.9031;0.0000
8;-2.3004;-1.4625;0.0000;-0.8380;0.0000
9;-1.9584;-1.3470;0.0000;-0.6114;0.0000
10;-1.4108;-0.9433;0.0000;-0.4675;0.0000
11;-4.6942;15.8127;-18.4069;3.9882;-6.0882
12;-3.7533;6.5002;-9.4683;4.2689;-5.0541
13;0.0000;0.0000;0.0000;0.0000;0.0000
14;-5.4338;-2.8080;0.0000;-2.6257;0.0000
15;-4.1203;-1.9438;0.0000;-2.1765;0.0000
16;-0.6842;-0.3751;0.0000;-0.3090;0.0000
17;-5.2073;-3.8236;0.0000;-1.3837;0.0000
18;-1.0576;0.0000;0.0000;-1.0576;0.0000
19;-0.1283;0.0000;0.0000;-0.1283;0.0000
20;0.0000;0.0000;0.0000;0.0000;0.0000
21;-4.5104;-2.1126;0.0000;-2.3978;0.0000
22;0.0000;0.0000;0.0000;0.0000;0.0000
23;-2.3584;-1.0697;0.0000;-1.2887;0.0000
24;0.0073;0.0297;0.0000;-0.0224;0.0000
25;0.2680;0.0000;0.0000;0.2680;0.0000
26;0.0191;0.0000;0.0000;0.0191;0.0000
27;0.0000;0.0000;0.0000;0.0000;0.0000

> <BIOSOLVEIT.HYDE_ESTIMATED_AFFINITY_LOWER_BOUNDARY [nM]>
0.222032

> <BIOSOLVEIT.HYDE_ESTIMATED_AFFINITY_UPPER_BOUNDARY [nM]>
22.060145

> <BIOSOLVEIT.HYDE_LIGAND_EFFICIENCY range: ++, +, 0, -, -->
+

> <BIOSOLVEIT.HYDE_LIGAND_LIPOPHILIC_EFFICIENCY range: ++, +, 0, -, -->
-

> <BIOSOLVEIT.LOGP>
5.5964

> <BIOSOLVEIT.MOLECULAR_WEIGHT>
407.482

> <BIOSOLVEIT.MOLECULE_CHECKSUM>
LTQ5LjQwMjg7MS44Mjk3Mw==

> <BIOSOLVEIT.TPSA>
83.47

> <smiles_ligand>
CC(C)(C)S(=O)(=O)Nc1cc(-c2cccc3sc(C(=O)O)cc23)ccc1F

> <smiles_fragments_dummy>
{'AP': 'O=C([O-])c1cc2ccccc2s1', 'FP': '[60*]c1ccc(F)c(NS(=O)(=O)C(C)(C)C)c1'}

> <smiles_fragments>
{'AP': '[2*]c1cccc2sc(C(=O)[O-])cc12', 'FP': 'CC(C)(C)S(=O)(=O)Nc1ccccc1F'}

> <Murcko_SMILES>
c1ccc(-c2cccc3sccc23)cc1

> <Ro5>
True

$$$$
L022000650000000000000000
paSeeSAR  09302516483D 1   1.00000     0.00000     0
SeeSAR 13.0.1 paulakramer
 41 43  0  0  0  0            999 V2000
   -9.5003    5.0550  -28.4093 N   0  0  0  0  0  0  0  0  0  0  0  0
  -10.1949    3.8293  -28.6402 C   0  0  0  0  0  0  0  0  0  0  0  0
  -11.5915    3.8117  -28.7317 C   0  0  0  0  0  0  0  0  0  0  0  0
  -12.2565    2.5984  -28.9573 C   0  0  0  0  0  0  0  0  0  0  0  0
  -11.5047    1.4164  -29.0923 C   0  0  0  0  0  0  0  0  0  0  0  0
  -10.1115    1.4808  -28.9941 C   0  0  0  0  0  0  0  0  0  0  0  0
  -12.2724   -0.1464  -29.3490 Cl  0  0  0  0  0  0  0  0  0  0  0  0
   -9.4943    2.6714  -28.7731 N   0  0  0  0  0  0  0  0  0  0  0  0
  -15.8018    3.4624  -29.9309 C   0  0  0  0  0  0  0  0  0  0  0  0
  -18.8676    6.0050  -35.0397 C   0  0  0  0  0  0  0  0  0  0  0  0
  -18.6708    6.7445  -33.8788 C   0  0  0  0  0  0  0  0  0  0  0  0
  -17.7444    4.0451  -31.4325 C   0  0  0  0  0  0  0  0  0  0  0  0
  -18.3040    6.1145  -32.6941 C   0  0  0  0  0  0  0  0  0  0  0  0
  -18.1356    4.7343  -32.6861 C   0  0  0  0  0  0  0  0  0  0  0  0
  -18.3285    3.9853  -33.8427 C   0  0  0  0  0  0  0  0  0  0  0  0
  -18.6959    4.6256  -35.0222 C   0  0  0  0  0  0  0  0  0  0  0  0
  -18.5066    3.1655  -30.9449 O   0  0  0  0  0  0  0  0  0  0  0  0
  -16.5307    4.3929  -30.7446 N   0  0  0  0  0  0  0  0  0  0  0  0
  -16.5099    2.5085  -29.2076 C   0  0  0  0  0  0  0  0  0  0  0  0
  -15.8294    1.5939  -28.4097 C   0  0  0  0  0  0  0  0  0  0  0  0
  -14.4410    1.6324  -28.3360 C   0  0  0  0  0  0  0  0  0  0  0  0
  -13.7325    2.5863  -29.0595 C   0  0  0  0  0  0  0  0  0  0  0  0
  -14.4130    3.5018  -29.8570 C   0  0  0  0  0  0  0  0  0  0  0  0
  -13.6651    4.5554  -30.6587 C   0  0  0  0  0  0  0  0  0  0  0  0
  -14.0453    5.8283  -30.2333 O   0  0  0  0  0  0  0  0  0  0  0  0
   -8.5024    5.0597  -28.3450 H   0  0  0  0  0  0  0  0  0  0  0  0
  -10.0117    5.9088  -28.3117 H   0  0  0  0  0  0  0  0  0  0  0  0
  -12.1487    4.7195  -28.6301 H   0  0  0  0  0  0  0  0  0  0  0  0
   -9.5287    0.5890  -29.0935 H   0  0  0  0  0  0  0  0  0  0  0  0
  -19.1510    6.4976  -35.9464 H   0  0  0  0  0  0  0  0  0  0  0  0
  -18.8026    7.8062  -33.8968 H   0  0  0  0  0  0  0  0  0  0  0  0
  -18.1533    6.6844  -31.8011 H   0  0  0  0  0  0  0  0  0  0  0  0
  -18.1951    2.9238  -33.8253 H   0  0  0  0  0  0  0  0  0  0  0  0
  -18.8463    4.0562  -35.9156 H   0  0  0  0  0  0  0  0  0  0  0  0
  -16.1790    5.3244  -30.8373 H   0  0  0  0  0  0  0  0  0  0  0  0
  -17.5779    2.4780  -29.2646 H   0  0  0  0  0  0  0  0  0  0  0  0
  -16.3744    0.8606  -27.8527 H   0  0  0  0  0  0  0  0  0  0  0  0
  -13.9180    0.9286  -27.7230 H   0  0  0  0  0  0  0  0  0  0  0  0
  -13.8976    4.4434  -31.6971 H   0  0  0  0  0  0  0  0  0  0  0  0
  -12.6123    4.4317  -30.5135 H   0  0  0  0  0  0  0  0  0  0  0  0
  -13.6542    6.5151  -30.8460 H   0  0  0  0  0  0  0  0  0  0  0  0
  1  2  1  0  0  0  0
  2  3  2  0  0  0  0
  2  8  1  0  0  0  0
  3  4  1  0  0  0  0
  4  5  2  0  0  0  0
  5  6  1  0  0  0  0
  5  7  1  0  0  0  0
  6  8  2  0  0  0  0
  9 18  1  0  0  0  0
  9 19  2  0  0  0  0
  9 23  1  0  0  0  0
 10 11  2  0  0  0  0
 10 16  1  0  0  0  0
 11 13  1  0  0  0  0
 12 14  1  0  0  0  0
 12 17  2  0  0  0  0
 12 18  1  0  0  0  0
 13 14  2  0  0  0  0
 14 15  1  0  0  0  0
 15 16  2  0  0  0  0
 19 20  1  0  0  0  0
 20 21  2  0  0  0  0
 21 22  1  0  0  0  0
 22 23  2  0  0  0  0
 23 24  1  0  0  0  0
 24 25  1  0  0  0  0
 22  4  1  0  0  0  0
  1 26  1  0  0  0  0
  1 27  1  0  0  0  0
  3 28  1  0  0  0  0
  6 29  1  0  0  0  0
 10 30  1  0  0  0  0
 11 31  1  0  0  0  0
 13 32  1  0  0  0  0
 15 33  1  0  0  0  0
 16 34  1  0  0  0  0
 18 35  1  0  0  0  0
 19 36  1  0  0  0  0
 20 37  1  0  0  0  0
 21 38  1  0  0  0  0
 24 39  1  0  0  0  0
 24 40  1  0  0  0  0
 25 41  1  0  0  0  0
M  END
> <BIOSOLVEIT.HYDE_ATOM_SCORES [kJ/mol]>
# Atom-ID; Total; Rec-Desolv; Rec-IA; Lig-Desolv; Lig-IA
1;-4.6191;7.1876;-10.4000;7.0219;-8.4286
2;-0.6533;0.0000;0.0000;-0.6533;0.0000
3;-4.7012;-3.3660;0.0000;-1.3352;0.0000
4;-0.2335;0.0000;0.0000;-0.2335;0.0000
5;-0.3686;0.0000;0.0000;-0.3686;0.0000
6;-3.1915;-1.0661;0.0000;-2.1253;0.0000
7;-2.6471;-1.5856;0.0000;-1.0615;0.0000
8;-4.6776;4.9517;-8.1987;6.7681;-8.1987
9;-0.2068;0.0000;0.0000;-0.2068;0.0000
10;-1.5387;-0.8290;0.0000;-0.7098;0.0000
11;-1.9137;-1.1502;0.0000;-0.7634;0.0000
12;-0.0946;0.0000;0.0000;-0.0946;0.0000
13;-0.9132;-0.2141;0.0000;-0.6991;0.0000
14;-0.2609;0.0000;0.0000;-0.2609;0.0000
15;-2.1899;-0.9098;0.0000;-1.2801;0.0000
16;-3.8098;-2.1130;0.0000;-1.6968;0.0000
17;0.1382;0.0000;0.0000;0.1382;0.0000
18;-0.0101;0.0000;0.0000;-0.0101;0.0000
19;0.1454;0.2855;0.0000;-0.1401;0.0000
20;-0.1666;0.7006;0.0000;-0.8672;0.0000
21;-2.3098;-1.3572;0.0000;-0.9526;0.0000
22;-0.2028;0.0000;0.0000;-0.2028;0.0000
23;-0.2745;0.0000;0.0000;-0.2745;0.0000
24;-5.4632;-3.7272;0.0000;-1.7360;0.0000
25;-2.9577;8.2376;-9.6217;8.0481;-9.6217

> <BIOSOLVEIT.HYDE_ESTIMATED_AFFINITY_LOWER_BOUNDARY [nM]>
2.420420

> <BIOSOLVEIT.HYDE_ESTIMATED_AFFINITY_UPPER_BOUNDARY [nM]>
240.482998

> <BIOSOLVEIT.HYDE_LIGAND_EFFICIENCY range: ++, +, 0, -, -->
+

> <BIOSOLVEIT.HYDE_LIGAND_LIPOPHILIC_EFFICIENCY range: ++, +, 0, -, -->
0

> <BIOSOLVEIT.LOGP>
3.7288

> <BIOSOLVEIT.MOLECULAR_WEIGHT>
353.807

> <BIOSOLVEIT.MOLECULE_CHECKSUM>
LTQzLjQ4MDg7MS43MzkyMw==

> <BIOSOLVEIT.TPSA>
88.24

> <smiles_ligand>
Nc1cc(-c2cccc(NC(=O)c3ccccc3)c2CO)c(Cl)cn1

> <smiles_fragments_dummy>
{'AP': 'Nc1ccc(Cl)cn1', 'FP': '[24*]c1ccc(C(=O)Nc2cccc([40*])c2C[O-])cc1'}

> <smiles_fragments>
{'AP': '[4*]Nc1cc([16*])c(Cl)cn1', 'FP': 'O=C(Nc1ccccc1C[O-])c1ccccc1'}

> <Murcko_SMILES>
O=C(Nc1cccc(-c2ccncc2)c1)c1ccccc1

> <Ro5>
True

$$$$
L000803360000000000000000
paSeeSAR  09302516483D 1   1.00000     0.00000     0
SeeSAR 13.0.1 paulakramer
 36 39  0  0  0  0            999 V2000
  -10.1425    3.1753  -28.6907 C   0  0  0  0  0  0  0  0  0  0  0  0
  -10.5059    0.8957  -28.3308 C   0  0  0  0  0  0  0  0  0  0  0  0
  -11.3799    3.3174  -29.2541 C   0  0  0  0  0  0  0  0  0  0  0  0
   -9.4446    4.3210  -28.7197 N   0  0  0  0  0  0  0  0  0  0  0  0
  -12.7221    5.4111  -30.6196 Cl  0  0  0  0  0  0  0  0  0  0  0  0
  -11.4586    4.6334  -29.6826 C   0  0  0  0  0  0  0  0  0  0  0  0
  -10.2477    5.2203  -29.3312 C   0  0  0  0  0  0  0  0  0  0  0  0
   -9.6895    1.9844  -28.2314 N   0  0  0  0  0  0  0  0  0  0  0  0
  -12.2274    2.2062  -29.3466 C   0  0  0  0  0  0  0  0  0  0  0  0
  -11.7533    1.0118  -28.8820 N   0  0  0  0  0  0  0  0  0  0  0  0
  -13.5945    2.2760  -29.8899 C   0  0  0  0  0  0  0  0  0  0  0  0
  -14.4772    3.2327  -29.3976 C   0  0  0  0  0  0  0  0  0  0  0  0
  -15.7710    3.3100  -29.9021 C   0  0  0  0  0  0  0  0  0  0  0  0
  -16.1653    2.4234  -30.8983 C   0  0  0  0  0  0  0  0  0  0  0  0
  -15.2864    1.4651  -31.3934 C   0  0  0  0  0  0  0  0  0  0  0  0
  -13.9931    1.3911  -30.8865 C   0  0  0  0  0  0  0  0  0  0  0  0
  -17.5434    2.4956  -31.4456 C   0  0  0  0  0  0  0  0  0  0  0  0
  -17.9680    3.5567  -32.3909 C   0  0  0  0  0  0  0  0  0  0  0  0
  -18.1076    4.8630  -31.9349 C   0  0  0  0  0  0  0  0  0  0  0  0
  -18.5067    5.8533  -32.8264 C   0  0  0  0  0  0  0  0  0  0  0  0
  -18.7627    5.5414  -34.1569 C   0  0  0  0  0  0  0  0  0  0  0  0
  -18.6208    4.2316  -34.6041 C   0  0  0  0  0  0  0  0  0  0  0  0
  -18.2223    3.2345  -33.7202 C   0  0  0  0  0  0  0  0  0  0  0  0
  -18.3834    1.6226  -31.0939 O   0  0  0  0  0  0  0  0  0  0  0  0
  -10.1685   -0.0555  -27.9754 H   0  0  0  0  0  0  0  0  0  0  0  0
   -8.5233    4.4770  -28.3636 H   0  0  0  0  0  0  0  0  0  0  0  0
   -9.9880    6.2412  -29.5186 H   0  0  0  0  0  0  0  0  0  0  0  0
  -14.1604    3.9086  -28.6311 H   0  0  0  0  0  0  0  0  0  0  0  0
  -16.4549    4.0430  -29.5282 H   0  0  0  0  0  0  0  0  0  0  0  0
  -15.6035    0.7891  -32.1597 H   0  0  0  0  0  0  0  0  0  0  0  0
  -13.3093    0.6581  -31.2607 H   0  0  0  0  0  0  0  0  0  0  0  0
  -17.9105    5.1034  -30.9110 H   0  0  0  0  0  0  0  0  0  0  0  0
  -18.6173    6.8617  -32.4860 H   0  0  0  0  0  0  0  0  0  0  0  0
  -19.0690    6.3087  -34.8369 H   0  0  0  0  0  0  0  0  0  0  0  0
  -18.8182    3.9915  -35.6279 H   0  0  0  0  0  0  0  0  0  0  0  0
  -18.1119    2.2260  -34.0604 H   0  0  0  0  0  0  0  0  0  0  0  0
  1  3  2  0  0  0  0
  1  4  1  0  0  0  0
  1  8  1  0  0  0  0
  2  8  2  0  0  0  0
  2 10  1  0  0  0  0
  3  6  1  0  0  0  0
  3  9  1  0  0  0  0
  4  7  1  0  0  0  0
  5  6  1  0  0  0  0
  6  7  2  0  0  0  0
  9 10  2  0  0  0  0
 11 12  2  0  0  0  0
 11 16  1  0  0  0  0
 12 13  1  0  0  0  0
 13 14  2  0  0  0  0
 14 15  1  0  0  0  0
 14 17  1  0  0  0  0
 15 16  2  0  0  0  0
 17 18  1  0  0  0  0
 17 24  2  0  0  0  0
 18 19  2  0  0  0  0
 18 23  1  0  0  0  0
 19 20  1  0  0  0  0
 20 21  2  0  0  0  0
 21 22  1  0  0  0  0
 22 23  2  0  0  0  0
 11  9  1  0  0  0  0
  2 25  1  0  0  0  0
  4 26  1  0  0  0  0
  7 27  1  0  0  0  0
 12 28  1  0  0  0  0
 13 29  1  0  0  0  0
 15 30  1  0  0  0  0
 16 31  1  0  0  0  0
 19 32  1  0  0  0  0
 20 33  1  0  0  0  0
 21 34  1  0  0  0  0
 22 35  1  0  0  0  0
 23 36  1  0  0  0  0
M  END
> <BIOSOLVEIT.HYDE_ATOM_SCORES [kJ/mol]>
# Atom-ID; Total; Rec-Desolv; Rec-IA; Lig-Desolv; Lig-IA
1;-0.7805;0.0000;0.0000;-0.7805;0.0000
2;-1.8317;-0.2439;0.0000;-1.5879;0.0000
3;-0.5481;0.0000;0.0000;-0.5481;0.0000
4;-7.5714;4.4513;-10.4001;6.8060;-8.4287
5;-1.5278;0.4664;0.0000;-1.9942;0.0000
6;-0.5217;0.0000;0.0000;-0.5217;0.0000
7;-3.1340;-1.2084;0.0000;-1.9256;0.0000
8;-7.0117;3.1079;-8.4288;6.7380;-8.4288
9;-0.4580;0.0000;0.0000;-0.4580;0.0000
10;-1.5757;-1.4556;0.0000;-0.1201;0.0000
11;0.0000;0.0000;0.0000;0.0000;0.0000
12;-1.6109;-0.7852;0.0000;-0.8256;0.0000
13;-0.1787;0.0000;0.0000;-0.1787;0.0000
14;-0.1307;0.0000;0.0000;-0.1307;0.0000
15;-5.4867;-3.8732;0.0000;-1.6135;0.0000
16;-3.9070;-2.4712;0.0000;-1.4357;0.0000
17;-0.0640;0.0000;0.0000;-0.0640;0.0000
18;-0.1208;0.0000;0.0000;-0.1208;0.0000
19;-0.5800;0.0000;0.0000;-0.5800;0.0000
20;-1.5629;-0.8551;0.0000;-0.7078;0.0000
21;-0.3584;0.0000;0.0000;-0.3584;0.0000
22;-3.0531;-1.6135;0.0000;-1.4396;0.0000
23;-2.7290;-1.0285;0.0000;-1.7006;0.0000
24;-1.2956;-1.2762;0.0000;-0.0194;0.0000

> <BIOSOLVEIT.HYDE_ESTIMATED_AFFINITY_LOWER_BOUNDARY [nM]>
0.745984

> <BIOSOLVEIT.HYDE_ESTIMATED_AFFINITY_UPPER_BOUNDARY [nM]>
74.117944

> <BIOSOLVEIT.HYDE_LIGAND_EFFICIENCY range: ++, +, 0, -, -->
+

> <BIOSOLVEIT.HYDE_LIGAND_LIPOPHILIC_EFFICIENCY range: ++, +, 0, -, -->
0

> <BIOSOLVEIT.LOGP>
4.5093

> <BIOSOLVEIT.MOLECULAR_WEIGHT>
333.777

> <BIOSOLVEIT.MOLECULE_CHECKSUM>
LTQ2LjM5ODU7MS45MzMyNw==

> <BIOSOLVEIT.TPSA>
58.64

> <smiles_ligand>
O=C(c1ccccc1)c1ccc(-c2ncnc3[nH]cc(Cl)c23)cc1

> <smiles_fragments_dummy>
{'AP': 'Clc1c[nH]c2ncncc12', 'FP': '[43*]c1ccc(C(=O)c2ccccc2)cc1'}

> <smiles_fragments>
{'AP': '[17*]c1ncnc2[nH]cc(Cl)c12', 'FP': 'O=C(c1ccccc1)c1ccccc1'}

> <Murcko_SMILES>
O=C(c1ccccc1)c1ccc(-c2ncnc3[nH]ccc23)cc1

> <Ro5>
True

$$$$
L013600900000000000000000
paSeeSAR  09302516483D 1   1.00000     0.00000     0
SeeSAR 13.0.1 paulakramer
 35 38  0  0  0  0            999 V2000
  -12.1927    1.9800  -29.2654 C   0  0  0  0  0  0  0  0  0  0  0  0
  -11.8507    0.7718  -28.6703 C   0  0  0  0  0  0  0  0  0  0  0  0
  -10.6027    0.6706  -28.0641 C   0  0  0  0  0  0  0  0  0  0  0  0
   -9.7536    1.7088  -28.0529 N   0  0  0  0  0  0  0  0  0  0  0  0
  -11.2820    3.0364  -29.2328 C   0  0  0  0  0  0  0  0  0  0  0  0
  -10.0610    2.8823  -28.6199 C   0  0  0  0  0  0  0  0  0  0  0  0
   -9.3551    4.0704  -28.7324 N   0  0  0  0  0  0  0  0  0  0  0  0
  -10.1236    4.9924  -29.4191 C   0  0  0  0  0  0  0  0  0  0  0  0
  -11.2990    4.3834  -29.7352 C   0  0  0  0  0  0  0  0  0  0  0  0
  -12.3669    5.0221  -30.4576 C   0  0  0  0  0  0  0  0  0  0  0  0
  -13.2253    5.5377  -31.0376 N   0  0  0  0  0  0  0  0  0  0  0  0
  -16.7012    6.1292  -31.2574 C   0  0  0  0  0  0  0  0  0  0  0  0
  -16.0764    7.2809  -31.3350 N   0  0  0  0  0  0  0  0  0  0  0  0
  -15.2169    7.3971  -30.2544 C   0  0  0  0  0  0  0  0  0  0  0  0
  -15.3171    6.3153  -29.5175 N   0  0  0  0  0  0  0  0  0  0  0  0
  -16.2350    5.5049  -30.1160 N   0  0  0  0  0  0  0  0  0  0  0  0
  -16.6569    4.1964  -29.6298 C   0  0  0  0  0  0  0  0  0  0  0  0
  -15.6682    3.1345  -30.0820 C   0  0  0  0  0  0  0  0  0  0  0  0
  -14.4178    3.0494  -29.4798 C   0  0  0  0  0  0  0  0  0  0  0  0
  -16.0338    2.2585  -31.0993 C   0  0  0  0  0  0  0  0  0  0  0  0
  -15.1286    1.2870  -31.5132 C   0  0  0  0  0  0  0  0  0  0  0  0
  -13.8724    1.1833  -30.9251 C   0  0  0  0  0  0  0  0  0  0  0  0
  -13.5284    2.0701  -29.9098 C   0  0  0  0  0  0  0  0  0  0  0  0
  -12.5278   -0.0567  -28.6781 H   0  0  0  0  0  0  0  0  0  0  0  0
  -10.3158   -0.2497  -27.5996 H   0  0  0  0  0  0  0  0  0  0  0  0
   -8.4361    4.2345  -28.3739 H   0  0  0  0  0  0  0  0  0  0  0  0
   -9.8458    5.9978  -29.6576 H   0  0  0  0  0  0  0  0  0  0  0  0
  -17.4288    5.7483  -31.9433 H   0  0  0  0  0  0  0  0  0  0  0  0
  -14.5770    8.2309  -30.0537 H   0  0  0  0  0  0  0  0  0  0  0  0
  -17.6264    3.9682  -30.0207 H   0  0  0  0  0  0  0  0  0  0  0  0
  -16.6977    4.2112  -28.5607 H   0  0  0  0  0  0  0  0  0  0  0  0
  -14.1440    3.7267  -28.6979 H   0  0  0  0  0  0  0  0  0  0  0  0
  -16.9983    2.3312  -31.5569 H   0  0  0  0  0  0  0  0  0  0  0  0
  -15.4025    0.6099  -32.2951 H   0  0  0  0  0  0  0  0  0  0  0  0
  -13.1813    0.4332  -31.2486 H   0  0  0  0  0  0  0  0  0  0  0  0
  1  2  2  0  0  0  0
  1  5  1  0  0  0  0
  2  3  1  0  0  0  0
  3  4  2  0  0  0  0
  4  6  1  0  0  0  0
  5  6  2  0  0  0  0
  5  9  1  0  0  0  0
  6  7  1  0  0  0  0
  7  8  1  0  0  0  0
  8  9  2  0  0  0  0
  9 10  1  0  0  0  0
 10 11  3  0  0  0  0
 12 13  2  0  0  0  0
 12 16  1  0  0  0  0
 13 14  1  0  0  0  0
 14 15  2  0  0  0  0
 15 16  1  0  0  0  0
 16 17  1  0  0  0  0
 17 18  1  0  0  0  0
 18 19  2  0  0  0  0
 18 20  1  0  0  0  0
 19 23  1  0  0  0  0
 20 21  2  0  0  0  0
 21 22  1  0  0  0  0
 22 23  2  0  0  0  0
 23  1  1  0  0  0  0
  2 24  1  0  0  0  0
  3 25  1  0  0  0  0
  7 26  1  0  0  0  0
  8 27  1  0  0  0  0
 12 28  1  0  0  0  0
 14 29  1  0  0  0  0
 17 30  1  0  0  0  0
 17 31  1  0  0  0  0
 19 32  1  0  0  0  0
 20 33  1  0  0  0  0
 21 34  1  0  0  0  0
 22 35  1  0  0  0  0
M  END
> <BIOSOLVEIT.HYDE_ATOM_SCORES [kJ/mol]>
# Atom-ID; Total; Rec-Desolv; Rec-IA; Lig-Desolv; Lig-IA
1;-0.2528;0.0000;0.0000;-0.2528;0.0000
2;-1.0908;-0.3087;0.0000;-0.7821;0.0000
3;-1.5033;-0.2439;0.0000;-1.2595;0.0000
4;-7.0783;3.0374;-8.4286;6.7413;-8.4286
5;-0.4635;0.0000;0.0000;-0.4635;0.0000
6;-0.5642;0.0000;0.0000;-0.5642;0.0000
7;-3.6655;8.3949;-10.3990;6.7664;-8.4278
8;-7.0920;-5.3094;0.0000;-1.7827;0.0000
9;-0.5309;0.0000;0.0000;-0.5309;0.0000
10;-1.1587;0.0000;0.0000;-1.1587;0.0000
11;-2.5029;-2.3433;0.0000;-0.1596;0.0000
12;-1.0120;-0.1686;0.0000;-0.8433;0.0000
13;-0.6499;-0.0305;-0.9454;6.8623;-6.5364
14;-3.1305;-1.7474;0.0000;-1.3831;0.0000
15;-3.3710;7.8564;-9.6219;6.8228;-8.4284
16;-0.0474;0.0000;0.0000;-0.0474;0.0000
17;-0.2849;0.0916;0.0000;-0.3765;0.0000
18;0.0193;0.0193;0.0000;0.0000;0.0000
19;-0.7399;0.0000;0.0000;-0.7399;0.0000
20;-0.5674;0.0000;0.0000;-0.5674;0.0000
21;-2.9241;-1.3034;0.0000;-1.6207;0.0000
22;-5.5762;-4.0664;0.0000;-1.5097;0.0000
23;0.0000;0.0000;0.0000;0.0000;0.0000

> <BIOSOLVEIT.HYDE_ESTIMATED_AFFINITY_LOWER_BOUNDARY [nM]>
1.574353

> <BIOSOLVEIT.HYDE_ESTIMATED_AFFINITY_UPPER_BOUNDARY [nM]>
156.421311

> <BIOSOLVEIT.HYDE_LIGAND_EFFICIENCY range: ++, +, 0, -, -->
+

> <BIOSOLVEIT.HYDE_LIGAND_LIPOPHILIC_EFFICIENCY range: ++, +, 0, -, -->
+

> <BIOSOLVEIT.LOGP>
2.74138

> <BIOSOLVEIT.MOLECULAR_WEIGHT>
300.324

> <BIOSOLVEIT.MOLECULE_CHECKSUM>
LTQ0LjU0NzsxLjkzNjgz

> <BIOSOLVEIT.TPSA>
83.18

> <smiles_ligand>
N#Cc1c[nH]c2nccc(-c3cccc(Cn4cncn4)c3)c12

> <smiles_fragments_dummy>
{'AP': 'N#Cc1c[nH]c2ncccc12', 'FP': '[20*]c1cccc(Cn2cncn2)c1'}

> <smiles_fragments>
{'AP': '[4*]c1ccnc2[nH]cc(C#N)c12', 'FP': 'c1ccc(Cn2cncn2)cc1'}

> <Murcko_SMILES>
c1cc(Cn2cncn2)cc(-c2ccnc3[nH]ccc23)c1

> <Ro5>
True

$$$$
L021101650000000000000000
paSeeSAR  09302516483D 1   1.00000     0.00000     0
SeeSAR 13.0.1 paulakramer
 41 42  0  0  0  0            999 V2000
  -13.2921    1.6267  -30.1628 C   0  0  0  0  0  0  0  0  0  0  0  0
  -14.1026    2.7565  -30.1574 C   0  0  0  0  0  0  0  0  0  0  0  0
  -13.5808    3.9553  -29.6836 C   0  0  0  0  0  0  0  0  0  0  0  0
  -12.2718    4.0371  -29.2202 C   0  0  0  0  0  0  0  0  0  0  0  0
  -11.4820    2.8925  -29.2368 C   0  0  0  0  0  0  0  0  0  0  0  0
  -11.9795    1.6815  -29.7052 C   0  0  0  0  0  0  0  0  0  0  0  0
  -10.0825    2.9602  -28.7460 C   0  0  0  0  0  0  0  0  0  0  0  0
   -9.4983    1.9045  -28.3805 O   0  0  0  0  0  0  0  0  0  0  0  0
   -9.3680    4.1981  -28.6923 N   0  0  0  0  0  0  0  0  0  0  0  0
  -13.7834    0.4768  -30.6146 F   0  0  0  0  0  0  0  0  0  0  0  0
  -14.4031    5.1312  -29.6714 N   0  0  0  0  0  0  0  0  0  0  0  0
  -15.8136    5.1315  -30.0708 C   0  0  0  0  0  0  0  0  0  0  0  0
  -16.7457    5.1514  -28.8517 C   0  0  0  0  0  0  0  0  0  0  0  0
  -17.7041    3.9360  -28.8452 C   0  0  0  0  0  0  0  0  0  0  0  0
  -19.1128    4.2547  -28.5005 N   0  3  0  0  0  0  0  0  0  0  0  0
  -19.9025    3.0318  -28.2932 C   0  0  0  0  0  0  0  0  0  0  0  0
  -21.3410    3.3860  -27.9512 C   0  0  0  0  0  0  0  0  0  0  0  0
  -21.9142    4.1816  -28.9794 O   0  0  0  0  0  0  0  0  0  0  0  0
  -21.1826    5.3782  -29.2058 C   0  0  0  0  0  0  0  0  0  0  0  0
  -19.7403    5.0543  -29.5631 C   0  0  0  0  0  0  0  0  0  0  0  0
  -15.1108    2.7044  -30.5118 H   0  0  0  0  0  0  0  0  0  0  0  0
  -11.8795    4.9641  -28.8574 H   0  0  0  0  0  0  0  0  0  0  0  0
  -11.3633    0.8068  -29.7135 H   0  0  0  0  0  0  0  0  0  0  0  0
   -8.4259    4.2175  -28.3576 H   0  0  0  0  0  0  0  0  0  0  0  0
   -9.8106    5.0442  -28.9894 H   0  0  0  0  0  0  0  0  0  0  0  0
  -13.9933    5.9940  -29.3755 H   0  0  0  0  0  0  0  0  0  0  0  0
  -16.0120    4.2509  -30.6453 H   0  0  0  0  0  0  0  0  0  0  0  0
  -16.0051    5.9981  -30.6686 H   0  0  0  0  0  0  0  0  0  0  0  0
  -17.3256    6.0504  -28.8730 H   0  0  0  0  0  0  0  0  0  0  0  0
  -16.1528    5.1304  -27.9613 H   0  0  0  0  0  0  0  0  0  0  0  0
  -17.3388    3.2280  -28.1309 H   0  0  0  0  0  0  0  0  0  0  0  0
  -17.6915    3.4971  -29.8210 H   0  0  0  0  0  0  0  0  0  0  0  0
  -19.1212    4.7869  -27.6539 H   0  0  0  0  0  0  0  0  0  0  0  0
  -19.4768    2.4684  -27.4893 H   0  0  0  0  0  0  0  0  0  0  0  0
  -19.8863    2.4449  -29.1877 H   0  0  0  0  0  0  0  0  0  0  0  0
  -21.3603    3.9320  -27.0312 H   0  0  0  0  0  0  0  0  0  0  0  0
  -21.9095    2.4860  -27.8439 H   0  0  0  0  0  0  0  0  0  0  0  0
  -21.2009    5.9764  -28.3188 H   0  0  0  0  0  0  0  0  0  0  0  0
  -21.6327    5.9204  -30.0110 H   0  0  0  0  0  0  0  0  0  0  0  0
  -19.7203    4.5007  -30.4786 H   0  0  0  0  0  0  0  0  0  0  0  0
  -19.1947    5.9665  -29.6859 H   0  0  0  0  0  0  0  0  0  0  0  0
  1  2  2  0  0  0  0
  1  6  1  0  0  0  0
  1 10  1  0  0  0  0
  2  3  1  0  0  0  0
  3  4  2  0  0  0  0
  4  5  1  0  0  0  0
  5  6  2  0  0  0  0
  5  7  1  0  0  0  0
  7  8  2  0  0  0  0
  7  9  1  0  0  0  0
 11 12  1  0  0  0  0
 12 13  1  0  0  0  0
 13 14  1  0  0  0  0
 14 15  1  0  0  0  0
 15 16  1  0  0  0  0
 15 20  1  0  0  0  0
 16 17  1  0  0  0  0
 17 18  1  0  0  0  0
 18 19  1  0  0  0  0
 19 20  1  0  0  0  0
 11  3  1  0  0  0  0
  2 21  1  0  0  0  0
  4 22  1  0  0  0  0
  6 23  1  0  0  0  0
  9 24  1  0  0  0  0
  9 25  1  0  0  0  0
 11 26  1  0  0  0  0
 12 27  1  0  0  0  0
 12 28  1  0  0  0  0
 13 29  1  0  0  0  0
 13 30  1  0  0  0  0
 14 31  1  0  0  0  0
 14 32  1  0  0  0  0
 15 33  1  0  0  0  0
 16 34  1  0  0  0  0
 16 35  1  0  0  0  0
 17 36  1  0  0  0  0
 17 37  1  0  0  0  0
 19 38  1  0  0  0  0
 19 39  1  0  0  0  0
 20 40  1  0  0  0  0
 20 41  1  0  0  0  0
M  CHG  1  15   1
M  END
> <BIOSOLVEIT.HYDE_ATOM_SCORES [kJ/mol]>
# Atom-ID; Total; Rec-Desolv; Rec-IA; Lig-Desolv; Lig-IA
1;-1.6702;-1.3623;0.0000;-0.3080;0.0000
2;-1.7467;-1.0437;0.0000;-0.7030;0.0000
3;-0.2643;0.0000;0.0000;-0.2643;0.0000
4;-1.1465;0.0000;0.0000;-1.1465;0.0000
5;-0.4996;0.0000;0.0000;-0.4996;0.0000
6;-2.3226;-1.3470;0.0000;-0.9756;0.0000
7;-3.7975;-2.8526;0.0000;-0.9449;0.0000
8;-3.4527;6.1404;-8.4287;9.2357;-10.4001
9;-5.9209;5.7773;-10.1717;6.7171;-8.2436
10;-1.8805;-1.1011;0.0000;-0.7794;0.0000
11;-2.4486;8.5251;-9.5824;7.0025;-8.3938
12;-0.5931;0.0000;0.0000;-0.5931;0.0000
13;-4.3884;-2.5775;0.0000;-1.8109;0.0000
14;-0.3240;0.0000;0.0000;-0.3240;0.0000
15;-2.0638;10.1642;-10.4001;10.3626;-12.1905
16;-1.4599;-0.4549;0.0000;-1.0050;0.0000
17;-3.9767;-2.5798;0.0000;-1.3969;0.0000
18;-3.3048;10.3626;-12.1899;8.1444;-9.6219
19;-0.7721;0.2686;0.0000;-1.0408;0.0000
20;-0.4196;0.1758;0.0000;-0.5954;0.0000

> <BIOSOLVEIT.HYDE_ESTIMATED_AFFINITY_LOWER_BOUNDARY [nM]>
3.169100

> <BIOSOLVEIT.HYDE_ESTIMATED_AFFINITY_UPPER_BOUNDARY [nM]>
314.868817

> <BIOSOLVEIT.HYDE_LIGAND_EFFICIENCY range: ++, +, 0, -, -->
++

> <BIOSOLVEIT.HYDE_LIGAND_LIPOPHILIC_EFFICIENCY range: ++, +, 0, -, -->
++

> <BIOSOLVEIT.LOGP>
-0.3583

> <BIOSOLVEIT.MOLECULAR_WEIGHT>
282.337

> <BIOSOLVEIT.MOLECULE_CHECKSUM>
LTQyLjgxMjc7Mi4xNDA2NA==

> <BIOSOLVEIT.TPSA>
68.79

> <smiles_ligand>
NC(=O)c1cc(F)cc(NCCC[NH+]2CCOCC2)c1

> <smiles_fragments_dummy>
{'AP': 'NC(=O)c1cccc(F)c1', 'FP': '[18*]NCCC[NH+]1CCOCC1'}

> <smiles_fragments>
{'AP': '[13*]NC(=O)c1cc([45*])cc(F)c1', 'FP': 'NCCC[NH+]1CCOCC1'}

> <Murcko_SMILES>
c1ccc(NCCC[NH+]2CCOCC2)cc1

> <Ro5>
True

$$$$
L021104680000000000000000
paSeeSAR  09302516483D 1   1.00000     0.00000     0
SeeSAR 13.0.1 paulakramer
 45 47  0  0  0  0            999 V2000
  -13.0186    0.5977  -29.8622 C   0  0  0  0  0  0  0  0  0  0  0  0
  -14.0330    1.5458  -30.0050 C   0  0  0  0  0  0  0  0  0  0  0  0
  -13.7806    2.9021  -29.7443 C   0  0  0  0  0  0  0  0  0  0  0  0
  -12.4900    3.2930  -29.3487 C   0  0  0  0  0  0  0  0  0  0  0  0
  -11.4587    2.3445  -29.2163 C   0  0  0  0  0  0  0  0  0  0  0  0
  -11.7407    0.9913  -29.4637 C   0  0  0  0  0  0  0  0  0  0  0  0
  -10.0938    2.7506  -28.8081 C   0  0  0  0  0  0  0  0  0  0  0  0
   -9.2728    1.8750  -28.4216 O   0  0  0  0  0  0  0  0  0  0  0  0
   -9.6774    4.1183  -28.8581 N   0  0  0  0  0  0  0  0  0  0  0  0
  -13.2746   -0.7095  -30.1133 F   0  0  0  0  0  0  0  0  0  0  0  0
  -14.8323    3.8809  -29.8730 N   0  0  0  0  0  0  0  0  0  0  0  0
  -16.1582    3.5482  -29.3223 C   0  0  0  0  0  0  0  0  0  0  0  0
  -16.8878    4.7797  -28.7997 C   0  0  0  0  0  0  0  0  0  0  0  0
  -16.7720    5.9904  -29.7172 C   0  0  2  0  0  0  0  0  0  0  0  0
  -17.5176    5.7852  -31.0275 C   0  0  0  0  0  0  0  0  0  0  0  0
  -17.9813    4.6462  -31.3070 O   0  0  0  0  0  0  0  0  0  0  0  0
  -17.7264    6.8932  -31.9198 N   0  0  0  0  0  0  0  0  0  0  0  0
  -18.4175    6.7982  -33.1774 C   0  0  0  0  0  0  0  0  0  0  0  0
  -19.5722    7.5458  -33.3816 C   0  0  0  0  0  0  0  0  0  0  0  0
  -20.2360    7.4490  -34.5999 C   0  0  0  0  0  0  0  0  0  0  0  0
  -19.7514    6.6153  -35.6016 C   0  0  0  0  0  0  0  0  0  0  0  0
  -18.5957    5.8707  -35.3883 C   0  0  0  0  0  0  0  0  0  0  0  0
  -17.9248    5.9609  -34.1732 C   0  0  0  0  0  0  0  0  0  0  0  0
  -15.2998    6.3127  -29.9422 C   0  0  0  0  0  0  0  0  0  0  0  0
  -14.5078    5.1554  -30.5354 C   0  0  0  0  0  0  0  0  0  0  0  0
  -15.0094    1.2370  -30.3153 H   0  0  0  0  0  0  0  0  0  0  0  0
  -12.2890    4.3242  -29.1458 H   0  0  0  0  0  0  0  0  0  0  0  0
  -10.9709    0.2575  -29.3460 H   0  0  0  0  0  0  0  0  0  0  0  0
   -8.7510    4.3695  -28.5776 H   0  0  0  0  0  0  0  0  0  0  0  0
  -10.3127    4.8231  -29.1735 H   0  0  0  0  0  0  0  0  0  0  0  0
  -16.0332    2.8540  -28.5177 H   0  0  0  0  0  0  0  0  0  0  0  0
  -16.7488    3.0985  -30.0928 H   0  0  0  0  0  0  0  0  0  0  0  0
  -16.4769    5.0373  -27.8458 H   0  0  0  0  0  0  0  0  0  0  0  0
  -17.9240    4.5374  -28.6881 H   0  0  0  0  0  0  0  0  0  0  0  0
  -17.2164    6.8245  -29.2154 H   0  0  0  0  0  0  0  0  0  0  0  0
  -17.3684    7.7867  -31.6486 H   0  0  0  0  0  0  0  0  0  0  0  0
  -19.9453    8.1875  -32.6109 H   0  0  0  0  0  0  0  0  0  0  0  0
  -21.1253    8.0198  -34.7674 H   0  0  0  0  0  0  0  0  0  0  0  0
  -20.2673    6.5464  -36.5364 H   0  0  0  0  0  0  0  0  0  0  0  0
  -18.2230    5.2286  -36.1590 H   0  0  0  0  0  0  0  0  0  0  0  0
  -17.0355    5.3899  -34.0055 H   0  0  0  0  0  0  0  0  0  0  0  0
  -14.8629    6.5748  -29.0012 H   0  0  0  0  0  0  0  0  0  0  0  0
  -15.2338    7.1458  -30.6104 H   0  0  0  0  0  0  0  0  0  0  0  0
  -14.7389    5.0742  -31.5770 H   0  0  0  0  0  0  0  0  0  0  0  0
  -13.4628    5.3525  -30.4163 H   0  0  0  0  0  0  0  0  0  0  0  0
  1  2  2  0  0  0  0
  1  6  1  0  0  0  0
  1 10  1  0  0  0  0
  2  3  1  0  0  0  0
  3  4  2  0  0  0  0
  4  5  1  0  0  0  0
  5  6  2  0  0  0  0
  5  7  1  0  0  0  0
  7  8  2  0  0  0  0
  7  9  1  0  0  0  0
 11 12  1  0  0  0  0
 11 25  1  0  0  0  0
 12 13  1  0  0  0  0
 13 14  1  0  0  0  0
 14 15  1  0  0  0  0
 14 24  1  0  0  0  0
 15 16  2  0  0  0  0
 15 17  1  0  0  0  0
 17 18  1  0  0  0  0
 18 19  2  0  0  0  0
 18 23  1  0  0  0  0
 19 20  1  0  0  0  0
 20 21  2  0  0  0  0
 21 22  1  0  0  0  0
 22 23  2  0  0  0  0
 24 25  1  0  0  0  0
 11  3  1  0  0  0  0
  2 26  1  0  0  0  0
  4 27  1  0  0  0  0
  6 28  1  0  0  0  0
  9 29  1  0  0  0  0
  9 30  1  0  0  0  0
 12 31  1  0  0  0  0
 12 32  1  0  0  0  0
 13 33  1  0  0  0  0
 13 34  1  0  0  0  0
 14 35  1  0  0  0  0
 17 36  1  0  0  0  0
 19 37  1  0  0  0  0
 20 38  1  0  0  0  0
 21 39  1  0  0  0  0
 22 40  1  0  0  0  0
 23 41  1  0  0  0  0
 24 42  1  0  0  0  0
 24 43  1  0  0  0  0
 25 44  1  0  0  0  0
 25 45  1  0  0  0  0
M  END
> <BIOSOLVEIT.HYDE_ATOM_SCORES [kJ/mol]>
# Atom-ID; Total; Rec-Desolv; Rec-IA; Lig-Desolv; Lig-IA
1;-0.2324;0.0000;0.0000;-0.2324;0.0000
2;-0.5922;0.0000;0.0000;-0.5922;0.0000
3;-1.5387;-1.3518;0.0000;-0.1869;0.0000
4;-1.5521;-0.0792;0.0000;-1.4729;0.0000
5;-0.4882;0.0000;0.0000;-0.4882;0.0000
6;-1.0726;0.0000;0.0000;-1.0726;0.0000
7;-3.7835;-2.9123;0.0000;-0.8712;0.0000
8;-2.3971;6.0988;-8.4287;10.3330;-10.4001
9;-6.1570;5.9097;-10.4000;6.7620;-8.4287
10;-3.3065;-2.4032;0.0000;-0.9033;0.0000
11;0.0000;0.0000;0.0000;0.0000;0.0000
12;0.0425;0.1685;0.0000;-0.1259;0.0000
13;-1.7920;-0.6640;0.0000;-1.1281;0.0000
14;-2.2260;-1.3807;0.0000;-0.8453;0.0000
15;-0.1583;0.0000;0.0000;-0.1583;0.0000
16;-0.0291;0.0000;0.0000;-0.0291;0.0000
17;-2.3059;1.4439;-2.3709;6.8175;-8.1964
18;-1.9762;-1.6671;0.0000;-0.3092;0.0000
19;-0.6402;0.0000;0.0000;-0.6402;0.0000
20;-1.7663;-1.1030;0.0000;-0.6634;0.0000
21;-3.4765;-2.0613;0.0000;-1.4152;0.0000
22;-2.3976;-1.0987;0.0000;-1.2989;0.0000
23;-1.9211;-0.5330;0.0000;-1.3882;0.0000
24;1.1917;2.7844;0.0000;-1.5927;0.0000
25;-4.0475;-2.6257;0.0000;-1.4219;0.0000

> <BIOSOLVEIT.HYDE_ESTIMATED_AFFINITY_LOWER_BOUNDARY [nM]>
2.958716

> <BIOSOLVEIT.HYDE_ESTIMATED_AFFINITY_UPPER_BOUNDARY [nM]>
293.965888

> <BIOSOLVEIT.HYDE_LIGAND_EFFICIENCY range: ++, +, 0, -, -->
+

> <BIOSOLVEIT.HYDE_LIGAND_LIPOPHILIC_EFFICIENCY range: ++, +, 0, -, -->
0

> <BIOSOLVEIT.LOGP>
2.7797

> <BIOSOLVEIT.MOLECULAR_WEIGHT>
341.384

> <BIOSOLVEIT.MOLECULE_CHECKSUM>
LTQyLjk4MzsxLjcxOTMy

> <BIOSOLVEIT.TPSA>
75.43

> <smiles_ligand>
NC(=O)c1cc(F)cc(N2CCC(C(=O)Nc3ccccc3)CC2)c1

> <smiles_fragments_dummy>
{'AP': 'NC(=O)c1cccc(F)c1', 'FP': '[4*]N1CCC(C(=O)Nc2cccc([22*])c2)CC1'}

> <smiles_fragments>
{'AP': '[13*]NC(=O)c1cc([45*])cc(F)c1', 'FP': 'O=C(Nc1ccccc1)C1CCNCC1'}

> <Murcko_SMILES>
O=C(Nc1ccccc1)C1CCN(c2ccccc2)CC1

> <Ro5>
True

$$$$
L001103720000000000000000
paSeeSAR  09302516483D 1   1.00000     0.00000     0
SeeSAR 13.0.1 paulakramer
 45 48  0  0  0  0            999 V2000
  -12.2307    2.2853  -29.1795 C   0  0  0  0  0  0  0  0  0  0  0  0
  -11.3864    3.3903  -29.1852 C   0  0  0  0  0  0  0  0  0  0  0  0
  -11.5844    4.7532  -29.5933 C   0  0  0  0  0  0  0  0  0  0  0  0
  -10.4196    5.4313  -29.3829 C   0  0  0  0  0  0  0  0  0  0  0  0
   -9.5016    4.5380  -28.8572 N   0  0  0  0  0  0  0  0  0  0  0  0
  -10.0918    3.2836  -28.7388 C   0  0  0  0  0  0  0  0  0  0  0  0
  -11.7497    1.1178  -28.7281 N   0  0  0  0  0  0  0  0  0  0  0  0
  -10.4856    1.0086  -28.2919 C   0  0  0  0  0  0  0  0  0  0  0  0
   -9.6793    2.0820  -28.2997 N   0  0  0  0  0  0  0  0  0  0  0  0
  -18.8542    5.0526  -32.1763 C   0  0  0  0  0  0  0  0  0  0  0  0
  -18.7986    6.4631  -32.7431 C   0  0  0  0  0  0  0  0  0  0  0  0
  -19.1642    6.4803  -34.1676 N   0  3  0  0  0  0  0  0  0  0  0  0
  -18.2584    5.6268  -34.9512 C   0  0  0  0  0  0  0  0  0  0  0  0
  -18.2940    4.1951  -34.4394 C   0  0  0  0  0  0  0  0  0  0  0  0
  -17.9035    4.1704  -32.9701 C   0  0  0  0  0  0  0  0  0  0  0  0
  -17.9658    2.7211  -32.4390 C   0  0  0  0  0  0  0  0  0  0  0  0
  -17.6055    2.6466  -31.0198 N   0  0  0  0  0  0  0  0  0  0  0  0
  -16.2504    2.5524  -30.5565 C   0  0  0  0  0  0  0  0  0  0  0  0
  -15.6087    1.3183  -30.5562 C   0  0  0  0  0  0  0  0  0  0  0  0
  -14.2954    1.2403  -30.1047 C   0  0  0  0  0  0  0  0  0  0  0  0
  -13.4869   -0.3455  -30.1096 Cl  0  0  0  0  0  0  0  0  0  0  0  0
  -15.5979    3.6988  -30.1140 C   0  0  0  0  0  0  0  0  0  0  0  0
  -14.2845    3.6093  -29.6649 C   0  0  0  0  0  0  0  0  0  0  0  0
  -13.6335    2.3805  -29.6599 C   0  0  0  0  0  0  0  0  0  0  0  0
  -12.4878    5.1647  -29.9926 H   0  0  0  0  0  0  0  0  0  0  0  0
  -10.2465    6.4672  -29.5874 H   0  0  0  0  0  0  0  0  0  0  0  0
   -8.5605    4.7599  -28.6022 H   0  0  0  0  0  0  0  0  0  0  0  0
  -10.1205    0.0671  -27.9382 H   0  0  0  0  0  0  0  0  0  0  0  0
  -19.8508    4.6713  -32.2564 H   0  0  0  0  0  0  0  0  0  0  0  0
  -18.5591    5.0659  -31.1478 H   0  0  0  0  0  0  0  0  0  0  0  0
  -17.8047    6.8442  -32.6334 H   0  0  0  0  0  0  0  0  0  0  0  0
  -19.4805    7.0841  -32.2005 H   0  0  0  0  0  0  0  0  0  0  0  0
  -19.1075    7.4185  -34.5090 H   0  0  0  0  0  0  0  0  0  0  0  0
  -20.1006    6.1445  -34.2695 H   0  0  0  0  0  0  0  0  0  0  0  0
  -17.2607    6.0047  -34.8692 H   0  0  0  0  0  0  0  0  0  0  0  0
  -18.5619    5.6410  -35.9771 H   0  0  0  0  0  0  0  0  0  0  0  0
  -17.6057    3.5986  -35.0011 H   0  0  0  0  0  0  0  0  0  0  0  0
  -19.2823    3.8008  -34.5523 H   0  0  0  0  0  0  0  0  0  0  0  0
  -16.9058    4.5423  -32.8640 H   0  0  0  0  0  0  0  0  0  0  0  0
  -17.2855    2.1163  -33.0015 H   0  0  0  0  0  0  0  0  0  0  0  0
  -18.9611    2.3487  -32.5639 H   0  0  0  0  0  0  0  0  0  0  0  0
  -18.3400    2.6622  -30.3413 H   0  0  0  0  0  0  0  0  0  0  0  0
  -16.1179    0.4416  -30.8983 H   0  0  0  0  0  0  0  0  0  0  0  0
  -16.1027    4.6422  -30.1192 H   0  0  0  0  0  0  0  0  0  0  0  0
  -13.7750    4.4860  -29.3232 H   0  0  0  0  0  0  0  0  0  0  0  0
  1  2  2  0  0  0  0
  1  7  1  0  0  0  0
  2  3  1  0  0  0  0
  2  6  1  0  0  0  0
  3  4  2  0  0  0  0
  4  5  1  0  0  0  0
  5  6  1  0  0  0  0
  6  9  2  0  0  0  0
  7  8  2  0  0  0  0
  8  9  1  0  0  0  0
 10 11  1  0  0  0  0
 10 15  1  0  0  0  0
 11 12  1  0  0  0  0
 12 13  1  0  0  0  0
 13 14  1  0  0  0  0
 14 15  1  0  0  0  0
 15 16  1  0  0  0  0
 16 17  1  0  0  0  0
 17 18  1  0  0  0  0
 18 19  2  0  0  0  0
 18 22  1  0  0  0  0
 19 20  1  0  0  0  0
 20 21  1  0  0  0  0
 20 24  2  0  0  0  0
 22 23  2  0  0  0  0
 23 24  1  0  0  0  0
 24  1  1  0  0  0  0
  3 25  1  0  0  0  0
  4 26  1  0  0  0  0
  5 27  1  0  0  0  0
  8 28  1  0  0  0  0
 10 29  1  0  0  0  0
 10 30  1  0  0  0  0
 11 31  1  0  0  0  0
 11 32  1  0  0  0  0
 12 33  1  0  0  0  0
 12 34  1  0  0  0  0
 13 35  1  0  0  0  0
 13 36  1  0  0  0  0
 14 37  1  0  0  0  0
 14 38  1  0  0  0  0
 15 39  1  0  0  0  0
 16 40  1  0  0  0  0
 16 41  1  0  0  0  0
 17 42  1  0  0  0  0
 19 43  1  0  0  0  0
 22 44  1  0  0  0  0
 23 45  1  0  0  0  0
M  CHG  1  12   1
M  END
> <BIOSOLVEIT.HYDE_ATOM_SCORES [kJ/mol]>
# Atom-ID; Total; Rec-Desolv; Rec-IA; Lig-Desolv; Lig-IA
1;-0.4850;0.0000;0.0000;-0.4850;0.0000
2;-0.4553;0.0000;0.0000;-0.4553;0.0000
3;-0.6208;0.5173;0.0000;-1.1381;0.0000
4;-2.7925;-1.1057;0.0000;-1.6868;0.0000
5;-7.5636;4.4549;-10.4001;6.8104;-8.4287
6;-0.7460;0.0000;0.0000;-0.7460;0.0000
7;-0.2446;-0.1817;0.0000;-0.0629;0.0000
8;-1.8244;-0.2439;0.0000;-1.5805;0.0000
9;-7.0300;3.0470;-8.4288;6.7805;-8.4288
10;-0.1289;0.0000;0.0000;-0.1289;0.0000
11;-2.3516;-1.3865;0.0000;-0.9650;0.0000
12;0.1958;0.0000;0.0000;0.1958;0.0000
13;-3.7127;-1.8708;0.0000;-1.8419;0.0000
14;-3.5858;-1.6692;0.0000;-1.9166;0.0000
15;-3.7216;-3.1579;0.0000;-0.5638;0.0000
16;-3.2354;-2.0128;0.0000;-1.2225;0.0000
17;0.0000;0.0000;0.0000;0.0000;0.0000
18;-0.0424;0.0000;0.0000;-0.0424;0.0000
19;-0.8439;0.0881;0.0000;-0.9320;0.0000
20;-0.2250;0.0000;0.0000;-0.2250;0.0000
21;-4.2214;-2.7256;0.0000;-1.4958;0.0000
22;-0.4904;0.0000;0.0000;-0.4904;0.0000
23;-1.6339;-0.7436;0.0000;-0.8904;0.0000
24;-1.7509;-1.3679;0.0000;-0.3830;0.0000

> <BIOSOLVEIT.HYDE_ESTIMATED_AFFINITY_LOWER_BOUNDARY [nM]>
0.411980

> <BIOSOLVEIT.HYDE_ESTIMATED_AFFINITY_UPPER_BOUNDARY [nM]>
40.932673

> <BIOSOLVEIT.HYDE_LIGAND_EFFICIENCY range: ++, +, 0, -, -->
+

> <BIOSOLVEIT.HYDE_LIGAND_LIPOPHILIC_EFFICIENCY range: ++, +, 0, -, -->
+

> <BIOSOLVEIT.LOGP>
2.6636

> <BIOSOLVEIT.MOLECULAR_WEIGHT>
342.852

> <BIOSOLVEIT.MOLECULE_CHECKSUM>
LTQ3Ljg3MDQ7MS45OTQ2

> <BIOSOLVEIT.TPSA>
70.21

> <smiles_ligand>
Clc1cc(NCC2CC[NH2+]CC2)ccc1-c1ncnc2[nH]ccc12

> <smiles_fragments_dummy>
{'AP': 'c1ncc2cc[nH]c2n1', 'FP': '[32*]c1ccc(NCC2CC[NH2+]CC2)cc1Cl'}

> <smiles_fragments>
{'AP': '[18*]c1ncnc2[nH]ccc12', 'FP': 'Clc1cccc(NCC2CC[NH2+]CC2)c1'}

> <Murcko_SMILES>
c1nc(-c2ccc(NCC3CC[NH2+]CC3)cc2)c2cc[nH]c2n1

> <Ro5>
True

$$$$
L007103720000000000000000
paSeeSAR  09302516483D 1   1.00000     0.00000     0
SeeSAR 13.0.1 paulakramer
 44 47  0  0  0  0            999 V2000
  -12.2272    2.2420  -29.1536 C   0  0  0  0  0  0  0  0  0  0  0  0
  -11.3445    3.3148  -29.1953 C   0  0  0  0  0  0  0  0  0  0  0  0
  -11.4769    4.6266  -29.6264 N   0  0  0  0  0  0  0  0  0  0  0  0
  -10.0630    3.1342  -28.7393 C   0  0  0  0  0  0  0  0  0  0  0  0
   -9.4268    4.3564  -28.9005 N   0  0  0  0  0  0  0  0  0  0  0  0
  -10.3321    5.2498  -29.4512 C   0  0  0  0  0  0  0  0  0  0  0  0
   -9.7118    1.9275  -28.2693 N   0  0  0  0  0  0  0  0  0  0  0  0
  -10.5793    0.9040  -28.2381 C   0  0  0  0  0  0  0  0  0  0  0  0
  -11.8382    1.0506  -28.6773 N   0  0  0  0  0  0  0  0  0  0  0  0
  -18.2410    4.3485  -34.4791 C   0  0  0  0  0  0  0  0  0  0  0  0
  -18.2486    5.7772  -34.9999 C   0  0  0  0  0  0  0  0  0  0  0  0
  -19.2144    6.5998  -34.2569 N   0  3  0  0  0  0  0  0  0  0  0  0
  -18.9038    6.6158  -32.8195 C   0  0  0  0  0  0  0  0  0  0  0  0
  -18.9154    5.2058  -32.2507 C   0  0  0  0  0  0  0  0  0  0  0  0
  -17.9004    4.3550  -32.9977 C   0  0  0  0  0  0  0  0  0  0  0  0
  -17.9215    2.9101  -32.4438 C   0  0  0  0  0  0  0  0  0  0  0  0
  -17.5666    2.8707  -31.0218 N   0  0  0  0  0  0  0  0  0  0  0  0
  -16.2203    2.7091  -30.5516 C   0  0  0  0  0  0  0  0  0  0  0  0
  -15.6362    1.4466  -30.5611 C   0  0  0  0  0  0  0  0  0  0  0  0
  -14.3308    1.3034  -30.1026 C   0  0  0  0  0  0  0  0  0  0  0  0
  -13.5963   -0.3179  -30.1203 Cl  0  0  0  0  0  0  0  0  0  0  0  0
  -15.5186    3.8194  -30.0923 C   0  0  0  0  0  0  0  0  0  0  0  0
  -14.2137    3.6646  -29.6364 C   0  0  0  0  0  0  0  0  0  0  0  0
  -13.6201    2.4069  -29.6413 C   0  0  0  0  0  0  0  0  0  0  0  0
   -8.4773    4.5582  -28.6605 H   0  0  0  0  0  0  0  0  0  0  0  0
  -10.1333    6.2730  -29.6928 H   0  0  0  0  0  0  0  0  0  0  0  0
  -10.2618   -0.0440  -27.8567 H   0  0  0  0  0  0  0  0  0  0  0  0
  -17.5090    3.7780  -35.0116 H   0  0  0  0  0  0  0  0  0  0  0  0
  -19.2070    3.9111  -34.6217 H   0  0  0  0  0  0  0  0  0  0  0  0
  -18.5167    5.7714  -36.0357 H   0  0  0  0  0  0  0  0  0  0  0  0
  -17.2708    6.1968  -34.8870 H   0  0  0  0  0  0  0  0  0  0  0  0
  -20.1319    6.2244  -34.3883 H   0  0  0  0  0  0  0  0  0  0  0  0
  -19.1839    7.5358  -34.6077 H   0  0  0  0  0  0  0  0  0  0  0  0
  -19.6353    7.2065  -32.3088 H   0  0  0  0  0  0  0  0  0  0  0  0
  -17.9344    7.0449  -32.6745 H   0  0  0  0  0  0  0  0  0  0  0  0
  -19.8911    4.7819  -32.3657 H   0  0  0  0  0  0  0  0  0  0  0  0
  -18.6603    5.2372  -31.2120 H   0  0  0  0  0  0  0  0  0  0  0  0
  -16.9237    4.7706  -32.8621 H   0  0  0  0  0  0  0  0  0  0  0  0
  -17.2200    2.3176  -32.9931 H   0  0  0  0  0  0  0  0  0  0  0  0
  -18.9042    2.5054  -32.5675 H   0  0  0  0  0  0  0  0  0  0  0  0
  -18.2986    2.9609  -30.3465 H   0  0  0  0  0  0  0  0  0  0  0  0
  -16.1831    0.5981  -30.9159 H   0  0  0  0  0  0  0  0  0  0  0  0
  -15.9794    4.7851  -30.0899 H   0  0  0  0  0  0  0  0  0  0  0  0
  -13.6666    4.5131  -29.2820 H   0  0  0  0  0  0  0  0  0  0  0  0
  1  2  2  0  0  0  0
  1  9  1  0  0  0  0
  2  3  1  0  0  0  0
  2  4  1  0  0  0  0
  3  6  2  0  0  0  0
  4  5  1  0  0  0  0
  4  7  2  0  0  0  0
  5  6  1  0  0  0  0
  7  8  1  0  0  0  0
  8  9  2  0  0  0  0
 10 11  1  0  0  0  0
 10 15  1  0  0  0  0
 11 12  1  0  0  0  0
 12 13  1  0  0  0  0
 13 14  1  0  0  0  0
 14 15  1  0  0  0  0
 15 16  1  0  0  0  0
 16 17  1  0  0  0  0
 17 18  1  0  0  0  0
 18 19  2  0  0  0  0
 18 22  1  0  0  0  0
 19 20  1  0  0  0  0
 20 21  1  0  0  0  0
 20 24  2  0  0  0  0
 22 23  2  0  0  0  0
 23 24  1  0  0  0  0
 24  1  1  0  0  0  0
  5 25  1  0  0  0  0
  6 26  1  0  0  0  0
  8 27  1  0  0  0  0
 10 28  1  0  0  0  0
 10 29  1  0  0  0  0
 11 30  1  0  0  0  0
 11 31  1  0  0  0  0
 12 32  1  0  0  0  0
 12 33  1  0  0  0  0
 13 34  1  0  0  0  0
 13 35  1  0  0  0  0
 14 36  1  0  0  0  0
 14 37  1  0  0  0  0
 15 38  1  0  0  0  0
 16 39  1  0  0  0  0
 16 40  1  0  0  0  0
 17 41  1  0  0  0  0
 19 42  1  0  0  0  0
 22 43  1  0  0  0  0
 23 44  1  0  0  0  0
M  CHG  1  12   1
M  END
> <BIOSOLVEIT.HYDE_ATOM_SCORES [kJ/mol]>
# Atom-ID; Total; Rec-Desolv; Rec-IA; Lig-Desolv; Lig-IA
1;-0.5610;0.0000;0.0000;-0.5610;0.0000
2;-0.5080;0.0000;0.0000;-0.5080;0.0000
3;0.4359;0.6123;0.0000;-0.1764;0.0000
4;-0.7989;0.0000;0.0000;-0.7989;0.0000
5;-7.4360;4.5567;-10.4002;6.8363;-8.4288
6;-2.7310;-0.9559;0.0000;-1.7751;0.0000
7;-7.0494;3.0470;-8.4287;6.7610;-8.4287
8;-1.9361;-0.2439;0.0000;-1.6923;0.0000
9;-0.2568;-0.1817;0.0000;-0.0751;0.0000
10;-3.4387;-1.6258;0.0000;-1.8129;0.0000
11;-3.8259;-1.9749;0.0000;-1.8510;0.0000
12;0.3124;0.0000;0.0000;0.3124;0.0000
13;-2.3070;-1.2897;0.0000;-1.0172;0.0000
14;-0.1489;0.0000;0.0000;-0.1489;0.0000
15;-3.5770;-3.0769;0.0000;-0.5002;0.0000
16;-3.0596;-1.8427;0.0000;-1.2169;0.0000
17;0.0000;0.0000;0.0000;0.0000;0.0000
18;-0.0423;0.0000;0.0000;-0.0423;0.0000
19;-0.8275;0.0703;0.0000;-0.8978;0.0000
20;-0.2250;0.0000;0.0000;-0.2250;0.0000
21;-4.1124;-2.7199;0.0000;-1.3925;0.0000
22;-0.5029;0.0000;0.0000;-0.5029;0.0000
23;-1.7964;-0.7436;0.0000;-1.0528;0.0000
24;-1.7109;-1.3219;0.0000;-0.3890;0.0000

> <BIOSOLVEIT.HYDE_ESTIMATED_AFFINITY_LOWER_BOUNDARY [nM]>
0.726678

> <BIOSOLVEIT.HYDE_ESTIMATED_AFFINITY_UPPER_BOUNDARY [nM]>
72.199742

> <BIOSOLVEIT.HYDE_LIGAND_EFFICIENCY range: ++, +, 0, -, -->
+

> <BIOSOLVEIT.HYDE_LIGAND_LIPOPHILIC_EFFICIENCY range: ++, +, 0, -, -->
+

> <BIOSOLVEIT.LOGP>
2.0586

> <BIOSOLVEIT.MOLECULAR_WEIGHT>
343.84

> <BIOSOLVEIT.MOLECULE_CHECKSUM>
LTQ2LjQ2MzU7MS45MzU5OA==

> <BIOSOLVEIT.TPSA>
83.1

> <smiles_ligand>
Clc1cc(NCC2CC[NH2+]CC2)ccc1-c1ncnc2[nH]cnc12

> <smiles_fragments_dummy>
{'AP': 'c1ncc2nc[nH]c2n1', 'FP': '[32*]c1ccc(NCC2CC[NH2+]CC2)cc1Cl'}

> <smiles_fragments>
{'AP': '[14*]c1ncnc2[nH]cnc12', 'FP': 'Clc1cccc(NCC2CC[NH2+]CC2)c1'}

> <Murcko_SMILES>
c1nc(-c2ccc(NCC3CC[NH2+]CC3)cc2)c2nc[nH]c2n1

> <Ro5>
True

$$$$
